   ---   47   cards of disk file read into card cache cells  1   onward.
 <===> Done with  "/"-card sorting by data class.    Remember that the source file appears different from interpreted input data.
Alternative Transients Program (ATP),  GNU Linux or DOS.  All rights reserved by Can/Am user group of Portland, Oregon, USA.
 Date (dd-mth-yy) and time of day (hh.mm.ss) = 24-Nov-16  10:03:38   Name of disk plot file is  c:\atp\atpdraw\atp\cir0.pl4
Consult the 860-page ATP Rule Book of the Can/Am EMTP User Group in Portland,  Oregon, USA.  Source code date is 31 July 2006.
Total size of LABCOM tables = 10913313 INTEGER words.  31 VARDIM  List Sizes follow:  6002  10K  192K  900  420K  1200  15K
  120K  2250  3800  720  2K  72800  510  90K  800  90  254  120K  100K  3K  15K  192K  120  45K  260K  600  210K  600  19  200
--------------------------------------------------+--------------------------------------------------------------------------------
Descriptive interpretation of input data cards.   |  Input data card images are shown below, all 80 columns, character by character
                                                  0         1         2         3         4         5         6         7         8
                                                  012345678901234567890123456789012345678901234567890123456789012345678901234567890
--------------------------------------------------+--------------------------------------------------------------------------------
Comment card.   NUMDCD = 1.                       |C data:C:\ATP\ATPDRAW\ATP\CIR0.ATP
Marker card preceding new EMTP data case.         |BEGIN NEW DATA CASE
Comment card.   NUMDCD = 3.                       |C --------------------------------------------------------
Comment card.   NUMDCD = 4.                       |C Generated by ATPDRAW  noviembre, jueves 24, 2016
Comment card.   NUMDCD = 5.                       |C A Bonneville Power Administration program
Comment card.   NUMDCD = 6.                       |C by H. K. Høidalen at SEfAS/NTNU - NORWAY 1994-2015
Comment card.   NUMDCD = 7.                       |C --------------------------------------------------------
Comment card.   NUMDCD = 8.                       |C  dT  >< Tmax >< Xopt >< Copt ><Epsiln>
Misc. data.     8.000E-05   1.600E-01   0.000E+00 |   8.E-5     .16
Misc. data.      1    1  1  1  1  0  0  1  0  0   |       1       1       1       1       1       0       0       1       0
Electric network, too.  But TACS data first ...   |TACS HYBRID
TACS source.    1.000E+00   0.000E+00   0.000E+00 |11XX0002          1.                                               .05        .1
TACS source.    1.000E+00   0.000E+00   0.000E+00 |11XX0003          1.                                               .05        .1
TACS source.    1.000E+00   0.000E+00   0.000E+00 |11XX0004          1.                                               .05        .1
Comment card.   NUMDCD = 15.                      |C        1         2         3         4         5         6         7         8
Comment card.   NUMDCD = 16.                      |C 345678901234567890123456789012345678901234567890123456789012345678901234567890
Blank card terminating all TACS data cards.       |BLANK TACS
Comment card.   NUMDCD = 18.                      |C < n1 >< n2 ><ref1><ref2>< R  >< L  >< C  >
Comment card.   NUMDCD = 19.                      |C < n1 >< n2 ><ref1><ref2>< R  >< A  >< B  ><Leng><><>0
Series R-L-C.   2.000E+01  0.000E+00  0.000E+00   |  F1A   F2A                  20.                                               0
Series R-L-C.   2.000E+01  0.000E+00  0.000E+00   |  F1B   F2B                  20.                                               0
Series R-L-C.   2.000E+01  0.000E+00  0.000E+00   |  F1C   F2C                  20.                                               0
Series R-L-C.   2.000E+01  0.000E+00  0.000E+00   |  F2A   X0001A               20.                                               0
Series R-L-C.   2.000E+01  0.000E+00  0.000E+00   |  F2B   X0001B               20.                                               0
Series R-L-C.   2.000E+01  0.000E+00  0.000E+00   |  F2C   X0001C               20.                                               0
Series R-L-C.   2.000E+01  0.000E+00  0.000E+00   |  X0001A                     20.                                               0
Series R-L-C.   2.000E+01  0.000E+00  0.000E+00   |  X0001B                     20.                                               0
Series R-L-C.   2.000E+01  0.000E+00  0.000E+00   |  X0001C                     20.                                               0
Blank card ending branches.  IBR, NTOT = 9  10    |BLANK BRANCH
Comment card.   NUMDCD = 30.                      |C < n 1>< n 2>< Tclose ><Top/Tde ><   Ie   ><Vf/CLOP ><  type  >
Switch.  TACS control = "XX0002"                  |13F2A   X0001A                                        CLOSED          XX0002   0
Switch.  TACS control = "XX0003"                  |13F2B   X0001B                                        CLOSED          XX0003   0
Switch.  TACS control = "XX0004"                  |13F2C   X0001C                                        CLOSED          XX0004   0
Blank card ending switches.   KSWTCH = 3.         |BLANK SWITCH
Comment card.   NUMDCD = 35.                      |C < n 1><>< Ampl.  >< Freq.  ><Phase/T0><   A1   ><   T1   >< TSTART >< TSTOP  >
Source.   1.70E+02  6.00E+01  0.00E+00 -1.00E+00  |14F1A     169.705627       60.                                     -1.      100.
Source.   1.70E+02  6.00E+01 -1.20E+02 -1.00E+00  |14F1B     169.705627       60.     -120.                           -1.      100.
Source.   1.70E+02  6.00E+01 -2.40E+02 -1.00E+00  |14F1C     169.705627       60.     -240.                           -1.      100.
Blank card ends electric sources.  KCONST = 3     |BLANK SOURCE

List of input elements that are connected to each node.   Only the physical connections of multi-phase lines are shown (capacitive
and inductive coupling are ignored).   Repeated entries indicate parallel connections.   Switches are included,  although sources
(including rotating machinery) are omitted -- except that U.M. usage produces extra,  internally-defined nodes  "UMXXXX".
--------------+------------------------------
From bus name |  Names of all adjacent busses.
--------------+------------------------------
       F1A    |F2A   *
       F2A    |F1A   *X0001A*X0001A*
       F1B    |F2B   *
       F2B    |F1B   *X0001B*X0001B*
       F1C    |F2C   *
       F2C    |F1C   *X0001C*X0001C*
       X0001A |TERRA *F2A   *F2A   *
       X0001B |TERRA *F2B   *F2B   *
       X0001C |TERRA *F2C   *F2C   *
       TERRA  |X0001A*X0001B*X0001C*
--------------+------------------------------

Sinusoidal steady-state phasor solution, branch by branch.   All flows are away from a bus,  and the real part,  magnitude,  or  "P"
is printed above the imaginary part,  the angle,  or  "Q".   The first solution frequency  =  6.00000000E+01  Hertz.
  Bus K                        Phasor  node  voltage              Phasor  branch  current               Power flow       Power loss
             Bus M         Rectangular            Polar          Rectangular            Polar            P  and  Q        P  and  Q

 F1A                       169.705627       169.705627          4.242640675      4.242640675      359.99999794329  179.99999897164
                                  0.0              0.0                  0.0              0.0                  0.0              0.0

            F2A            84.8528135       84.8528135         -4.242640675      4.242640675      -179.9999989716
                                  0.0              0.0                  0.0     -180.0000000                  0.0

 F1B                      -84.8528135       169.705627        -2.1213203375      4.242640675      359.99999794329  179.99999897164
                      -146.9693841472     -120.0000000      -3.674234603679     -120.0000000      .5245803791E-14        0.0000000

            F2B          -42.42640675       84.8528135         2.1213203375      4.242640675      -179.9999989716
                      -73.48469207358     -120.0000000      3.6742346036792       60.0000000       -.60368377E-15

 F1C                      -84.8528135       169.705627        -2.1213203375      4.242640675      359.99999794329  179.99999897164
                      146.96938414717      120.0000000      3.6742346036792      120.0000000      .2775557562E-15        0.0000000

            F2C          -42.42640675       84.8528135         2.1213203375      4.242640675      -179.9999989716
                      73.484692073583      120.0000000      -3.674234603679      -60.0000000      -.215105711E-14

 F2A                       84.8528135       84.8528135                  0.0              0.0                  0.0              0.0
                                  0.0              0.0                  0.0              0.0                  0.0              0.0

            X0001A         84.8528135       84.8528135                  0.0              0.0                  0.0
                                  0.0              0.0                  0.0              0.0                  0.0

 F2B                     -42.42640675       84.8528135                  0.0              0.0                  0.0              0.0
                      -73.48469207358     -120.0000000                  0.0              0.0                  0.0              0.0

            X0001B       -42.42640675       84.8528135                  0.0              0.0                  0.0
                      -73.48469207358     -120.0000000                  0.0              0.0                  0.0

 F2C                     -42.42640675       84.8528135                  0.0              0.0                  0.0              0.0
                      73.484692073583      120.0000000                  0.0              0.0                  0.0              0.0

            X0001C       -42.42640675       84.8528135                  0.0              0.0                  0.0
                      73.484692073583      120.0000000                  0.0              0.0                  0.0

 X0001A                    84.8528135       84.8528135          4.242640675      4.242640675      179.99999897164  179.99999897164
                                  0.0              0.0                  0.0              0.0                  0.0              0.0

            TERRA                 0.0              0.0         -4.242640675      4.242640675                  0.0
                                  0.0              0.0                  0.0     -180.0000000                  0.0

 X0001B                  -42.42640675       84.8528135        -2.1213203375      4.242640675      179.99999897164  179.99999897164
                      -73.48469207358     -120.0000000      -3.674234603679     -120.0000000      -.376781939E-14        0.0000000

            TERRA                 0.0              0.0         2.1213203375      4.242640675                  0.0
                                  0.0              0.0      3.6742346036792       60.0000000                  0.0

 X0001C                  -42.42640675       84.8528135        -2.1213203375      4.242640675      179.99999897164  179.99999897164
                      73.484692073583      120.0000000      3.6742346036792      120.0000000       .652256027E-14        0.0000000

            TERRA                 0.0              0.0         2.1213203375      4.242640675                  0.0
                                  0.0              0.0      -3.674234603679      -60.0000000                  0.0
     Total network loss  P-loss  by summing injections =   1.079999993830E+03

Output for steady-state phasor switch currents.
      Node-K    Node-M            I-real            I-imag            I-magn          Degrees        Power            Reactive
      F2A       X0001A        4.24264068E+00    0.00000000E+00    4.24264068E+00       0.0000    1.79999999E+02    0.00000000E+00
      F2B       X0001B       -2.12132034E+00   -3.67423460E+00    4.24264068E+00    -120.0000    1.79999999E+02    6.03683770E-16
      F2C       X0001C       -2.12132034E+00    3.67423460E+00    4.24264068E+00     120.0000    1.79999999E+02    1.15740750E-14

Solution at nodes with known voltage.   Nodes that are shorted together by switches are shown as a group of names, with the printed
result applying to the composite group.   The entry "MVA" is  SQRT( P**2 + Q**2 )  in units of power,  while  "P.F."  is the
associated power factor.
              Node                Source  node  voltage             Injected  source  current              Injected  source  power
              name         Rectangular            Polar          Rectangular            Polar            P  and  Q    MVA and P.F.

              F1A          169.705627       169.705627          4.242640675      4.242640675      359.99999794329  359.99999794329
                                  0.0              0.0                  0.0              0.0                  0.0        1.0000000

              F1B         -84.8528135       169.705627        -2.1213203375      4.242640675      359.99999794329  359.99999794329
                      -146.9693841472     -120.0000000      -3.674234603679     -120.0000000      .5245803791E-14        1.0000000

              F1C         -84.8528135       169.705627        -2.1213203375      4.242640675      359.99999794329  359.99999794329
                      146.96938414717      120.0000000      3.6742346036792      120.0000000      .1910971381E-13        1.0000000


Zero-frequency (dc) steady-state solution for TACS follows.
   (Name)      TACS value   (Name)    TACS value     (Name)    TACS value     (Name)    TACS value     (Name)    TACS value
           0.00000000E+00   TIMEX   0.00000000E+00   ISTEP   0.00000000E+00   DELTAT  8.00000000E-05   FREQHZ  6.00000000E+01
   OMEGAR  3.76991118E+02   ZERO    0.00000000E+00   PLUS1   1.00000000E+00   MINUS1 -1.00000000E+00   UNITY   1.00000000E+00
   INFNTY  1.00000000E+19   PI      3.14159265E+00   XX0002  0.00000000E+00   XX0003  0.00000000E+00   XX0004  0.00000000E+00
Card of names for time-step loop output.          |  F2A   F2B   F2C
Blank card ending requests for output variables.  |BLANK OUTPUT

Column headings for the  3   EMTP output variables follow.  These are divided among the 5 possible classes as follows ....
  First  3     output variables are electric-network voltage differences (upper voltage minus lower voltage);
   Step      Time      F2A        F2B        F2C
 
 ***      Phasor I(0) =  4.2426407E+00                     Switch  "F2A   "  to  "X0001A"  closed in the steady-state.
 ***      Phasor I(0) = -2.1213203E+00                     Switch  "F2B   "  to  "X0001B"  closed in the steady-state.
 ***      Phasor I(0) = -2.1213203E+00                     Switch  "F2C   "  to  "X0001C"  closed in the steady-state.
      0       0.0  84.8528135 -42.426407 -42.426407
      1     .8E-4  84.8142261 -40.191203 -44.623023
      2    .16E-3  112.931332 -50.559259 -62.372072
      3    .24E-3  112.674317 -47.484264 -65.190052
      4    .32E-3  112.314822 -44.366081 -67.948741
      5     .4E-3  111.853176 -41.207547  -70.64563
      6    .48E-3  111.289798 -38.011533 -73.278265
      7    .56E-3    110.6252 -34.780948 -75.844253
      8    .64E-3  109.859987 -31.518729 -78.341259
      9    .72E-3  108.994855 -28.227843 -80.767013
     10     .8E-3  108.030591 -24.911283 -83.119308
     11    .88E-3  106.968071 -21.572067 -85.396005
     12    .96E-3  105.808262  -18.21323 -87.595033
     13    .00104   104.55222 -14.837828 -89.714392
     14    .00112  103.201085 -11.448931 -91.752155
     15     .0012  101.756088 -8.0496207 -93.706467
     16    .00128  100.218542 -4.6429894 -95.575553
     17    .00136  98.5898464 -1.2321352 -97.357711
     18    .00144  96.8714816 2.17983966 -99.051321
     19    .00152  95.0650109 5.58983191 -100.65484
     20     .0016  93.1720772 8.99474012 -102.16682
     21    .00168  91.1944023 12.3914675 -103.58587
     22    .00176  89.1337848 15.7769247 -104.91071
     23    .00184  86.9920988 19.1480325 -106.14013
     24    .00192  84.7712924 22.5017249 -107.27302
     25      .002  82.4733853 25.8349517 -108.30834
     26    .00208  80.1004675 29.1446813 -109.24515
     27    .00216  77.6546973 32.4279034  -110.0826
     28    .00224   75.138299 35.6816318 -110.81993
     29    .00232  72.5535614 38.9029073 -111.45647
     30     .0024  69.9028354 42.0888001 -111.99164
     31    .00248  67.1885317 45.2364125 -112.42494
     32    .00256  64.4131192 48.3428818   -112.756
     33    .00264   61.579122 51.4053826  -112.9845
     34    .00272  58.6891178 54.4211294 -113.11025
     35     .0028   55.745735 57.3873795 -113.13311
     36    .00288  52.7516506  60.301435 -113.05309
     37    .00296   49.709588 63.1606455 -112.87023
     38    .00304  46.6223138 65.9624105 -112.58472
     39    .00312  43.4926359 68.7041818 -112.19682
     40     .0032  40.3234009 71.3834657 -111.70687
     41    .00328  37.1174912 73.9978254 -111.11532
     42    .00336  33.8778226  76.544883 -110.42271
     43    .00344  30.6073417  79.022322 -109.62966
     44    .00352   27.309023  81.427889 -108.73691
     45     .0036  23.9858663 83.7593963 -107.74526
     46    .00368  20.6408942 86.0147233 -106.65562
     47    .00376  17.2771489 88.1918187 -105.46897
     48    .00384  13.8976898 90.2887024 -104.18639
     49    .00392  10.5055906 92.3034673 -102.80906
     50      .004  7.10393632 94.2342809 -101.33822
     51    .00408  3.69582097 96.0793872 -99.775208
     52    .00416  .284344208 97.8371079 -98.121452
     53    .00424  -3.1273912 99.5058444 -96.378453
     54    .00432  -6.5362821 101.084079 -94.547797
     55     .0044  -9.9392283 102.570376 -92.631148
     56    .00448  -13.333135 103.963384  -90.63025
     57    .00456  -16.714914 105.261836 -88.546922
     58    .00464  -20.081491 106.464551  -86.38306
     59    .00472  -23.429804 107.570435 -84.140631
     60     .0048  -26.756807 108.578482 -81.821675
     61    .00488  -30.059474 109.487775 -79.428301
     62    .00496  -33.334802 110.297488 -76.962686
     63    .00504  -36.579812 111.006884 -74.427072
     64    .00512  -39.791551 111.615317 -71.823766
     65     .0052    -42.9671 112.122235 -69.155135
     66    .00528  -46.103569 112.527176 -66.423607
     67    .00536  -49.198107 112.829772 -63.631665
     68    .00544  -52.247898 113.029747  -60.78185
     69    .00552  -55.250169 113.126921 -57.876752
     70     .0056  -58.202189 113.121204 -54.919015
     71    .00568  -61.101274 113.012602 -51.911328
     72    .00576  -63.944786 112.801213 -48.856428
     73    .00584  -66.730139  112.48723 -45.757091
     74    .00592  -69.454801 112.070939 -42.616138
     75      .006  -72.116292 111.552717 -39.436425
     76    .00608  -74.712192 110.933037 -36.220844
     77    .00616  -77.240141 110.212461  -32.97232
     78    .00624  -79.697839 109.391646 -29.693807
     79    .00632  -82.083051 108.471337 -26.388287
     80     .0064  -84.393607 107.452373 -23.058766
     81    .00648  -86.627405 106.335678 -19.708273
     82    .00656  -88.782415 105.122271 -16.339855
     83    .00664  -90.856676 103.813253 -12.956576
     84    .00672  -92.848302 102.409815  -9.561513
     85     .0068  -94.755481 100.913234 -6.1577534
     86    .00688  -96.576478 99.3248714 -2.7483932
     87    .00696  -98.309638 97.6461713 .663466714
     88    .00704  -99.953384 95.8786607 4.07472318
     89    .00712  -101.50622 94.0239471 7.48227362
     90     .0072  -102.96674 92.0837174 10.8830188
     91    .00728   -104.3336 90.0597363 14.2738658
     92    .00736  -105.60558 87.9538447 17.6517305
     93    .00744   -106.7815 85.7679578 21.0135407
     94    .00752   -107.8603 83.5040638 24.3562387
     95     .0076  -108.84101 81.1642216 27.6767845
     96    .00768  -109.72272 78.7505595 30.9721578
     97    .00776  -110.50463 76.2652727 34.2393615
     98    .00784  -111.18605 73.7106216 37.4754241
     99    .00792  -111.76633 71.0889296 40.6774022
    100      .008  -112.24496 68.4025812 43.8423837
    101    .00808  -112.62151 65.6540198 46.9674899
    102    .00816  -112.89562 62.8457452 50.0498786
    103    .00824  -113.06706 59.9803114 53.0867462
    104    .00832  -113.13566 57.0603248 56.0753306
    105     .0084  -113.10135 54.0884409 59.0129138
    106    .00848  -112.96419  51.067363 61.8968239
    107    .00856  -112.72428 47.9998385  64.724438
    108    .00864  -112.38184 44.8886575 67.4931844
    109    .00872  -111.93719 41.7366497 70.2005447
    110     .0088  -111.39074 38.5466818 72.8440567
    111    .00888  -110.74297 35.3216551  75.421316
    112    .00896  -109.99448  32.064503 77.9299786
    113    .00904  -109.14595 28.7781877 80.3677628
    114    .00912  -108.19815 25.4656983 82.7324514
    115     .0092  -107.15194 22.1300474 85.0218937
    116    .00928  -106.00828  18.774269 87.2340074
    117    .00936   -104.7682 15.4014151 89.3667806
    118    .00944  -103.43283 12.0145535 91.4182734
    119    .00952  -102.00338 8.61676439 93.3866201
    120     .0096  -100.48117 5.21113825 95.2700304
    121    .00968  -98.867564  1.8007725 97.0667912
    122    .00976  -97.164037 -1.6112311 98.7752685
    123    .00984  -95.372139 -5.0217692 100.393908
    124    .00992  -93.493498   -8.42774 101.921238
    125       .01  -91.529824 -11.826046  103.35587
    126    .01008  -89.482902 -15.213595 104.696498
    127    .01016  -87.354594 -18.587308 105.941902
    128    .01024  -85.146836 -21.944115 107.090952
    129    .01032  -82.861636 -25.280964   108.1426
    130     .0104  -80.501072 -28.594819 109.095892
    131    .01048  -78.067291 -31.882668 109.949959
    132    .01056  -75.562507 -35.141518 110.704025
    133    .01064  -72.988998 -38.368406 111.357404
    134    .01072  -70.349104 -41.560398 111.909502
    135     .0108  -67.645227 -44.714591 112.359817
    136    .01088  -64.879825 -47.828114  112.70794
    137    .01096  -62.055414 -50.898138 112.953552
    138    .01104  -59.174564 -53.921869 113.096432
    139    .01112  -56.239893 -56.896557 113.136449
    140     .0112  -53.254071 -59.819497 113.073567
    141    .01128  -50.219813  -62.68803 112.907843
    142    .01136   -47.13988 -65.499548 112.639428
    143    .01144  -44.017073 -68.251493 112.268566
    144    .01152  -40.854232 -70.941362 111.795594
    145     .0116  -37.654233 -73.566709 111.220942
    146    .01168  -34.419987 -76.125146 110.545133
    147    .01176  -31.154436 -78.614347 109.768782
    148    .01184  -27.860549 -81.032046 108.892595
    149    .01192  -24.541323 -83.376046 107.917368
    150      .012  -21.199776 -85.644214 106.843989
    151    .01208  -17.838947 -87.834487 105.673434
    152    .01216  -14.461894 -89.944874 104.406768
    153    .01224  -11.071687 -91.973455 103.045142
    154    .01232   -7.671411 -93.918384 101.589795
    155     .0124  -4.2641574 -95.777894 100.042051
    156    .01248  -.85302544 -97.550292 98.4033171
    157    .01256  2.55888235 -99.233967 96.6750842
    158    .01264   5.9684628 -100.82739 94.8589239
    159    .01272  9.37261484  -102.3291 92.9564881
    160     .0128  12.7682424 -103.73775 90.9695071
    161    .01288   16.152257 -105.05205  88.899788
    162    .01296  19.5215809 -106.27079 86.7492134
    163    .01304  22.8731497 -107.39289 84.5197392
    164    .01312  26.2039151 -108.41731 82.2133931
    165     .0132  29.5108476 -109.34312 79.8322728
    166    .01328  32.7909396 -110.16948  77.378544
    167    .01336  36.0412078 -110.89565 74.8544383
    168    .01344   39.258696 -111.52095 72.2622514
    169    .01352  42.4404778 -112.04482  69.604341
    170     .0136  45.5836595 -112.46678 66.8831246
    171    .01368  48.6853822 -112.78646  64.101077
    172    .01376  51.7428249 -113.00355 61.2607285
    173    .01384  54.7532068 -113.11787 58.3646626
    174    .01392  57.7137899  -113.1293 55.4155133
    175      .014  60.6218815 -113.03784 52.4159628
    176    .01408  63.4748366 -112.84358 49.3687392
    177    .01416  66.2700605 -112.54667 46.2766141
    178    .01424  69.0050109 -112.14741 43.1423997
    179    .01432  71.6772003 -111.64615 39.9689468
    180     .0144  74.2841982 -111.04334 36.7591415
    181    .01448  76.8236337 -110.33954 33.5159033
    182    .01456   79.293197 -109.53538 30.2421819
    183    .01464  81.6906421  -108.6316 26.9409548
    184    .01472  84.0137883 -107.62901 23.6152246
    185     .0148  86.2605229 -106.52854  20.268016
    186    .01488  88.4288024 -105.33118 16.9023733
    187    .01496  90.5166546 -104.03801 13.5213578
    188    .01504  92.5221807 -102.65022 10.1280443
    189    .01512  94.4435566 -101.16908 6.72551925
    190     .0152  96.2790347 -99.595912 3.31687725
    191    .01528  98.0269458 -97.932164 -.09478149
    192    .01536     99.6857 -96.179346  -3.506354
    193    .01544  101.253789 -94.339051 -6.9147375
    194    .01552  102.729786 -92.412954 -10.316832
    195     .0156  104.112348 -90.402805 -13.709543
    196    .01568   105.40022 -88.310434 -17.089785
    197    .01576  106.592228 -86.137744 -20.454484
    198    .01584  107.687289  -83.88671 -23.800579
    199    .01592  108.684407  -81.55938 -27.125027
    200      .016  109.582675 -79.157871 -30.424805
    201    .01608  110.381276 -76.684366  -33.69691
    202    .01616  111.079484 -74.141116 -36.938368
    203    .01624  111.676664 -71.530433  -40.14623
    204    .01632  112.172272 -68.854693 -43.317579
    205     .0164  112.565857 -66.116328 -46.449529
    206    .01648  112.857063  -63.31783 -49.539233
    207    .01656  113.045624 -60.461743 -52.583881
    208    .01664  113.131368 -57.550665 -55.580702
    209    .01672  113.114217 -54.587245 -58.526972
    210     .0168  112.994188 -51.574176 -61.420011
    211    .01688  112.771388   -48.5142 -64.257188
    212    .01696  112.446022   -45.4101 -67.035922
    213    .01704  112.018384 -42.264698 -69.753686
    214    .01712  111.488865 -39.080856 -72.408008
    215     .0172  110.857944  -35.86147 -74.996474
    216    .01728  110.126197 -32.609467 -77.516729
    217    .01736  109.294288 -29.327806 -79.966482
    218    .01744  108.362975  -26.01947 -82.343505
    219    .01752  107.333104 -22.687469 -84.645635
    220     .0176  106.205612 -19.334834 -86.870778
    221    .01768  104.981525 -15.964613 -89.016911
    222    .01776  103.661955 -12.579873 -91.082083
    223    .01784  102.248104 -9.1836904 -93.064413
    224    .01792  100.741256 -5.7791555 -94.962101
    225      .018  99.1427831 -2.3693643 -96.773419
    226    .01808  97.4541382 1.04258177  -98.49672
    227    .01816  95.6768575 4.45357963 -100.13044
    228    .01824  93.8125574  7.8605269 -101.67308
    229    .01832  91.8629335 11.2603249 -103.12326
    230     .0184   89.829759 14.6498815 -104.47964
    231    .01848   87.714883 18.0261138   -105.741
    232    .01856  85.5202292 21.3859511 -106.90618
    233    .01864  83.2477935 24.7263376 -107.97413
    234    .01872  80.8996428 28.0442352 -108.94388
    235     .0188  78.4779128 31.3366261 -109.81454
    236    .01888   75.984806  34.600516 -110.58532
    237    .01896    73.42259 37.8329362 -111.25553
    238    .01904  70.7935952 41.0309468 -111.82454
    239    .01912  68.1002125 44.1916392 -112.29185
    240     .0192  65.3448918 47.3121387 -112.65703
    241    .01928  62.5301391 50.3896072 -112.91975
    242    .01936  59.6585143 53.4212456 -113.07976
    243    .01944  56.7326292 56.4042966 -113.13693
    244    .01952  53.7551451 59.3360472 -113.09119
    245     .0196  50.7287699 62.2138308  -112.9426
    246    .01968  47.6562562 65.0350301 -112.69129
    247    .01976  44.5403984 67.7970791 -112.33748
    248    .01984  41.3840306 70.4974658  -111.8815
    249    .01992  38.1900234  73.133734 -111.32376
    250       .02  34.9612819 75.7034861 -110.66477
    251    .02008  31.7007425 78.2043848 -109.90513
    252    .02016   28.411371 80.6341555 -109.04553
    253    .02024  25.0961589 82.9905884 -108.08675
    254    .02032  21.7581215 85.2715402 -107.02966
    255     .0204  18.4002947 87.4749363 -105.87523
    256    .02048  15.0257327 89.5987728 -104.62451
    257    .02056  11.6375045  91.641118 -103.27862
    258    .02064   8.2386919 93.6001143 -101.83881
    259    .02072  4.83238607   95.47398 -100.30637
    260     .0208  1.42168512 97.2610108 -98.682696
    261    .02088  -1.9903089 98.9595814 -96.969273
    262    .02096  -5.4004927 100.568147 -95.167654
    263    .02104  -8.8057646 102.085244  -93.27948
    264    .02112  -12.203028 103.509494 -91.306466
    265     .0212  -15.589192   104.8396 -89.250408
    266    .02128  -18.961177 106.074353 -87.113175
    267    .02136  -22.315918  107.21263 -84.896712
    268    .02144  -25.650361 108.253395 -82.603034
    269    .02152  -28.961475 109.195703 -80.234228
    270     .0216  -32.246248 110.038696 -77.792447
    271    .02168  -35.501693 110.781606 -75.279913
    272    .02176  -38.724849  111.42376 -72.698911
    273    .02184  -41.912784 111.964572 -70.051788
    274    .02192  -45.062598 112.403551 -67.340953
    275      .022  -48.171428 112.740297 -64.568869
    276    .02208  -51.236445 112.974504  -61.73806
    277    .02216  -54.254861  113.10596 -58.851098
    278    .02224  -57.223932 113.134544 -55.910611
    279    .02232  -60.140958  113.06023 -52.919273
    280     .0224  -63.003284 112.883087 -49.879803
    281    .02248  -65.808308 112.603275 -46.794968
    282    .02256  -68.553478 112.221049 -43.667571
    283    .02264  -71.236298 111.736756 -40.500458
    284    .02272  -73.854327 111.150837  -37.29651
    285     .0228  -76.405185 110.463825  -34.05864
    286    .02288  -78.886551 109.676344 -30.789793
    287    .02296  -81.296169 108.789112 -27.492942
    288    .02304  -83.631847 107.802934 -24.171086
    289    .02312  -85.891461 106.718708 -20.827247
    290     .0232  -88.072955  105.53742 -17.464464
    291    .02328  -90.174346 104.260144 -14.085798
    292    .02336  -92.193722 102.888041  -10.69432
    293    .02344  -94.129246 101.422361 -7.2931152
    294    .02352  -95.979159 99.8644362 -3.8852775
    295     .0236  -97.741777 98.2156829 -.47390613
    296    .02368  -99.415497 96.4776011  2.9378963
    297    .02376   -100.9988 94.6517717 6.34702666
    298    .02384  -102.49024 92.7398551 9.75038432
    299    .02392  -103.88846 90.7435903 13.1448739
    300      .024   -105.1922  88.664793  16.527408
    301    .02408  -106.40026 86.5053539 19.8949102
    302    .02416  -107.51155 84.2672369 23.2443177
    303    .02424  -108.52506 81.9524777 26.5725841
    304    .02432  -109.43986 79.5631816 29.8766825
    305     .0244  -110.25513 77.1015217 33.1536076
    306    .02448  -110.97012 74.5697369  36.400379
    307    .02456  -111.58417 71.9701299 39.6140438
    308    .02464  -112.09674 69.3050651  42.791679
    309    .02472  -112.50736 66.5769664 45.9303947
    310     .0248  -112.81565 63.7883149  49.027336
    311    .02488  -113.02133 60.9416472 52.0796863
    312    .02496  -113.12422 58.0395521 55.0846693
    313    .02504  -113.12422 55.0846693 58.0395521
    314    .02512  -113.02133 52.0796863 60.9416472
    315     .0252  -112.81565  49.027336 63.7883149
    316    .02528  -112.50736 45.9303947 66.5769664
    317    .02536  -112.09674  42.791679 69.3050651
    318    .02544  -111.58417 39.6140438 71.9701299
    319    .02552  -110.97012  36.400379 74.5697369
    320     .0256  -110.25513 33.1536076 77.1015217
    321    .02568  -109.43986 29.8766825 79.5631816
    322    .02576  -108.52506 26.5725841 81.9524777
    323    .02584  -107.51155 23.2443177 84.2672369
    324    .02592  -106.40026 19.8949102 86.5053539
    325      .026   -105.1922  16.527408  88.664793
    326    .02608  -103.88846 13.1448739 90.7435903
    327    .02616  -102.49024 9.75038432 92.7398551
    328    .02624   -100.9988 6.34702666 94.6517717
    329    .02632  -99.415497  2.9378963 96.4776011
    330     .0264  -97.741777 -.47390613 98.2156829
    331    .02648  -95.979159 -3.8852775 99.8644362
    332    .02656  -94.129246 -7.2931152 101.422361
    333    .02664  -92.193722  -10.69432 102.888041
    334    .02672  -90.174346 -14.085798 104.260144
    335     .0268  -88.072955 -17.464464  105.53742
    336    .02688  -85.891461 -20.827247 106.718708
    337    .02696  -83.631847 -24.171086 107.802934
    338    .02704  -81.296169 -27.492942 108.789112
    339    .02712  -78.886551 -30.789793 109.676344
    340     .0272  -76.405185  -34.05864 110.463825
    341    .02728  -73.854327  -37.29651 111.150837
    342    .02736  -71.236298 -40.500458 111.736756
    343    .02744  -68.553478 -43.667571 112.221049
    344    .02752  -65.808308 -46.794968 112.603275
    345     .0276  -63.003284 -49.879803 112.883087
    346    .02768  -60.140958 -52.919273  113.06023
    347    .02776  -57.223932 -55.910611 113.134544
    348    .02784  -54.254861 -58.851098  113.10596
    349    .02792  -51.236445  -61.73806 112.974504
    350      .028  -48.171428 -64.568869 112.740297
    351    .02808  -45.062598 -67.340953 112.403551
    352    .02816  -41.912784 -70.051788 111.964572
    353    .02824  -38.724849 -72.698911  111.42376
    354    .02832  -35.501693 -75.279913 110.781606
    355     .0284  -32.246248 -77.792447 110.038696
    356    .02848  -28.961475 -80.234228 109.195703
    357    .02856  -25.650361 -82.603034 108.253395
    358    .02864  -22.315918 -84.896712  107.21263
    359    .02872  -18.961177 -87.113175 106.074353
    360     .0288  -15.589192 -89.250408   104.8396
    361    .02888  -12.203028 -91.306466 103.509494
    362    .02896  -8.8057646  -93.27948 102.085244
    363    .02904  -5.4004927 -95.167654 100.568147
    364    .02912  -1.9903089 -96.969273 98.9595814
    365     .0292  1.42168512 -98.682696 97.2610108
    366    .02928  4.83238607 -100.30637   95.47398
    367    .02936   8.2386919 -101.83881 93.6001143
    368    .02944  11.6375045 -103.27862  91.641118
    369    .02952  15.0257327 -104.62451 89.5987728
    370     .0296  18.4002947 -105.87523 87.4749363
    371    .02968  21.7581215 -107.02966 85.2715402
    372    .02976  25.0961589 -108.08675 82.9905884
    373    .02984   28.411371 -109.04553 80.6341555
    374    .02992  31.7007425 -109.90513 78.2043848
    375       .03  34.9612819 -110.66477 75.7034861
    376    .03008  38.1900234 -111.32376  73.133734
    377    .03016  41.3840306  -111.8815 70.4974658
    378    .03024  44.5403984 -112.33748 67.7970791
    379    .03032  47.6562562 -112.69129 65.0350301
    380     .0304  50.7287699  -112.9426 62.2138308
    381    .03048  53.7551451 -113.09119 59.3360472
    382    .03056  56.7326292 -113.13693 56.4042966
    383    .03064  59.6585143 -113.07976 53.4212456
    384    .03072  62.5301391 -112.91975 50.3896072
    385     .0308  65.3448918 -112.65703 47.3121387
    386    .03088  68.1002125 -112.29185 44.1916392
    387    .03096  70.7935952 -111.82454 41.0309468
    388    .03104    73.42259 -111.25553 37.8329362
    389    .03112   75.984806 -110.58532  34.600516
    390     .0312  78.4779128 -109.81454 31.3366261
    391    .03128  80.8996428 -108.94388 28.0442352
    392    .03136  83.2477935 -107.97413 24.7263376
    393    .03144  85.5202292 -106.90618 21.3859511
    394    .03152   87.714883   -105.741 18.0261138
    395     .0316   89.829759 -104.47964 14.6498815
    396    .03168  91.8629335 -103.12326 11.2603249
    397    .03176  93.8125574 -101.67308  7.8605269
    398    .03184  95.6768575 -100.13044 4.45357963
    399    .03192  97.4541382  -98.49672 1.04258177
    400      .032  99.1427831 -96.773419 -2.3693643
    401    .03208  100.741256 -94.962101 -5.7791555
    402    .03216  102.248104 -93.064413 -9.1836904
    403    .03224  103.661955 -91.082083 -12.579873
    404    .03232  104.981525 -89.016911 -15.964613
    405     .0324  106.205612 -86.870778 -19.334834
    406    .03248  107.333104 -84.645635 -22.687469
    407    .03256  108.362975 -82.343505  -26.01947
    408    .03264  109.294288 -79.966482 -29.327806
    409    .03272  110.126197 -77.516729 -32.609467
    410     .0328  110.857944 -74.996474  -35.86147
    411    .03288  111.488865 -72.408008 -39.080856
    412    .03296  112.018384 -69.753686 -42.264698
    413    .03304  112.446022 -67.035922   -45.4101
    414    .03312  112.771388 -64.257188   -48.5142
    415     .0332  112.994188 -61.420011 -51.574176
    416    .03328  113.114217 -58.526972 -54.587245
    417    .03336  113.131368 -55.580702 -57.550665
    418    .03344  113.045624 -52.583881 -60.461743
    419    .03352  112.857063 -49.539233  -63.31783
    420     .0336  112.565857 -46.449529 -66.116328
    421    .03368  112.172272 -43.317579 -68.854693
    422    .03376  111.676664  -40.14623 -71.530433
    423    .03384  111.079484 -36.938368 -74.141116
    424    .03392  110.381276  -33.69691 -76.684366
    425      .034  109.582675 -30.424805 -79.157871
    426    .03408  108.684407 -27.125027  -81.55938
    427    .03416  107.687289 -23.800579  -83.88671
    428    .03424  106.592228 -20.454484 -86.137744
    429    .03432   105.40022 -17.089785 -88.310434
    430     .0344  104.112348 -13.709543 -90.402805
    431    .03448  102.729786 -10.316832 -92.412954
    432    .03456  101.253789 -6.9147375 -94.339051
    433    .03464     99.6857  -3.506354 -96.179346
    434    .03472  98.0269458 -.09478149 -97.932164
    435     .0348  96.2790347 3.31687725 -99.595912
    436    .03488  94.4435566 6.72551925 -101.16908
    437    .03496  92.5221807 10.1280443 -102.65022
    438    .03504  90.5166546 13.5213578 -104.03801
    439    .03512  88.4288024 16.9023733 -105.33118
    440     .0352  86.2605229  20.268016 -106.52854
    441    .03528  84.0137883 23.6152246 -107.62901
    442    .03536  81.6906421 26.9409548  -108.6316
    443    .03544   79.293197 30.2421819 -109.53538
    444    .03552  76.8236337 33.5159033 -110.33954
    445     .0356  74.2841982 36.7591415 -111.04334
    446    .03568  71.6772003 39.9689468 -111.64615
    447    .03576  69.0050109 43.1423997 -112.14741
    448    .03584  66.2700605 46.2766141 -112.54667
    449    .03592  63.4748366 49.3687392 -112.84358
    450      .036  60.6218815 52.4159628 -113.03784
    451    .03608  57.7137899 55.4155133  -113.1293
    452    .03616  54.7532068 58.3646626 -113.11787
    453    .03624  51.7428249 61.2607285 -113.00355
    454    .03632  48.6853822  64.101077 -112.78646
    455     .0364  45.5836595 66.8831246 -112.46678
    456    .03648  42.4404778  69.604341 -112.04482
    457    .03656   39.258696 72.2622514 -111.52095
    458    .03664  36.0412078 74.8544383 -110.89565
    459    .03672  32.7909396  77.378544 -110.16948
    460     .0368  29.5108476 79.8322728 -109.34312
    461    .03688  26.2039151 82.2133931 -108.41731
    462    .03696  22.8731497 84.5197392 -107.39289
    463    .03704  19.5215809 86.7492134 -106.27079
    464    .03712   16.152257  88.899788 -105.05205
    465     .0372  12.7682424 90.9695071 -103.73775
    466    .03728  9.37261484 92.9564881  -102.3291
    467    .03736   5.9684628 94.8589239 -100.82739
    468    .03744  2.55888235 96.6750842 -99.233967
    469    .03752  -.85302544 98.4033171 -97.550292
    470     .0376  -4.2641574 100.042051 -95.777894
    471    .03768   -7.671411 101.589795 -93.918384
    472    .03776  -11.071687 103.045142 -91.973455
    473    .03784  -14.461894 104.406768 -89.944874
    474    .03792  -17.838947 105.673434 -87.834487
    475      .038  -21.199776 106.843989 -85.644214
    476    .03808  -24.541323 107.917368 -83.376046
    477    .03816  -27.860549 108.892595 -81.032046
    478    .03824  -31.154436 109.768782 -78.614347
    479    .03832  -34.419987 110.545133 -76.125146
    480     .0384  -37.654233 111.220942 -73.566709
    481    .03848  -40.854232 111.795594 -70.941362
    482    .03856  -44.017073 112.268566 -68.251493
    483    .03864   -47.13988 112.639428 -65.499548
    484    .03872  -50.219813 112.907843  -62.68803
    485     .0388  -53.254071 113.073567 -59.819497
    486    .03888  -56.239893 113.136449 -56.896557
    487    .03896  -59.174564 113.096432 -53.921869
    488    .03904  -62.055414 112.953552 -50.898138
    489    .03912  -64.879825  112.70794 -47.828114
    490     .0392  -67.645227 112.359817 -44.714591
    491    .03928  -70.349104 111.909502 -41.560398
    492    .03936  -72.988998 111.357404 -38.368406
    493    .03944  -75.562507 110.704025 -35.141518
    494    .03952  -78.067291 109.949959 -31.882668
    495     .0396  -80.501072 109.095892 -28.594819
    496    .03968  -82.861636   108.1426 -25.280964
    497    .03976  -85.146836 107.090952 -21.944115
    498    .03984  -87.354594 105.941902 -18.587308
    499    .03992  -89.482902 104.696498 -15.213595
    500       .04  -91.529824  103.35587 -11.826046
    501    .04008  -93.493498 101.921238   -8.42774
    502    .04016  -95.372139 100.393908 -5.0217692
    503    .04024  -97.164037 98.7752685 -1.6112311
    504    .04032  -98.867564 97.0667912  1.8007725
    505     .0404  -100.48117 95.2700304 5.21113825
    506    .04048  -102.00338 93.3866201 8.61676439
    507    .04056  -103.43283 91.4182734 12.0145535
    508    .04064   -104.7682 89.3667806 15.4014151
    509    .04072  -106.00828 87.2340074  18.774269
    510     .0408  -107.15194 85.0218937 22.1300474
    511    .04088  -108.19815 82.7324514 25.4656983
    512    .04096  -109.14595 80.3677628 28.7781877
    513    .04104  -109.99448 77.9299786  32.064503
    514    .04112  -110.74297  75.421316 35.3216551
    515     .0412  -111.39074 72.8440567 38.5466818
    516    .04128  -111.93719 70.2005447 41.7366497
    517    .04136  -112.38184 67.4931844 44.8886575
    518    .04144  -112.72428  64.724438 47.9998385
    519    .04152  -112.96419 61.8968239  51.067363
    520     .0416  -113.10135 59.0129138 54.0884409
    521    .04168  -113.13566 56.0753306 57.0603248
    522    .04176  -113.06706 53.0867462 59.9803114
    523    .04184  -112.89562 50.0498786 62.8457452
    524    .04192  -112.62151 46.9674899 65.6540198
    525      .042  -112.24496 43.8423837 68.4025812
    526    .04208  -111.76633 40.6774022 71.0889296
    527    .04216  -111.18605 37.4754241 73.7106216
    528    .04224  -110.50463 34.2393615 76.2652727
    529    .04232  -109.72272 30.9721578 78.7505595
    530     .0424  -108.84101 27.6767845 81.1642216
    531    .04248   -107.8603 24.3562387 83.5040638
    532    .04256   -106.7815 21.0135407 85.7679578
    533    .04264  -105.60558 17.6517305 87.9538447
    534    .04272   -104.3336 14.2738658 90.0597363
    535     .0428  -102.96674 10.8830188 92.0837174
    536    .04288  -101.50622 7.48227362 94.0239471
    537    .04296  -99.953384 4.07472318 95.8786607
    538    .04304  -98.309638 .663466714 97.6461713
    539    .04312  -96.576478 -2.7483932 99.3248714
    540     .0432  -94.755481 -6.1577534 100.913234
    541    .04328  -92.848302  -9.561513 102.409815
    542    .04336  -90.856676 -12.956576 103.813253
    543    .04344  -88.782415 -16.339855 105.122271
    544    .04352  -86.627405 -19.708273 106.335678
    545     .0436  -84.393607 -23.058766 107.452373
    546    .04368  -82.083051 -26.388287 108.471337
    547    .04376  -79.697839 -29.693807 109.391646
    548    .04384  -77.240141  -32.97232 110.212461
    549    .04392  -74.712192 -36.220844 110.933037
    550      .044  -72.116292 -39.436425 111.552717
    551    .04408  -69.454801 -42.616138 112.070939
    552    .04416  -66.730139 -45.757091  112.48723
    553    .04424  -63.944786 -48.856428 112.801213
    554    .04432  -61.101274 -51.911328 113.012602
    555     .0444  -58.202189 -54.919015 113.121204
    556    .04448  -55.250169 -57.876752 113.126921
    557    .04456  -52.247898  -60.78185 113.029747
    558    .04464  -49.198107 -63.631665 112.829772
    559    .04472  -46.103569 -66.423607 112.527176
    560     .0448    -42.9671 -69.155135 112.122235
    561    .04488  -39.791551 -71.823766 111.615317
    562    .04496  -36.579812 -74.427072 111.006884
    563    .04504  -33.334802 -76.962686 110.297488
    564    .04512  -30.059474 -79.428301 109.487775
    565     .0452  -26.756807 -81.821675 108.578482
    566    .04528  -23.429804 -84.140631 107.570435
    567    .04536  -20.081491  -86.38306 106.464551
    568    .04544  -16.714914 -88.546922 105.261836
    569    .04552  -13.333135  -90.63025 103.963384
    570     .0456  -9.9392283 -92.631148 102.570376
    571    .04568  -6.5362821 -94.547797 101.084079
    572    .04576  -3.1273912 -96.378453 99.5058444
    573    .04584  .284344208 -98.121452 97.8371079
    574    .04592  3.69582097 -99.775208 96.0793872
    575      .046  7.10393632 -101.33822 94.2342809
    576    .04608  10.5055906 -102.80906 92.3034673
    577    .04616  13.8976898 -104.18639 90.2887024
    578    .04624  17.2771489 -105.46897 88.1918187
    579    .04632  20.6408942 -106.65562 86.0147233
    580     .0464  23.9858663 -107.74526 83.7593963
    581    .04648   27.309023 -108.73691  81.427889
    582    .04656  30.6073417 -109.62966  79.022322
    583    .04664  33.8778226 -110.42271  76.544883
    584    .04672  37.1174912 -111.11532 73.9978254
    585     .0468  40.3234009 -111.70687 71.3834657
    586    .04688  43.4926359 -112.19682 68.7041818
    587    .04696  46.6223138 -112.58472 65.9624105
    588    .04704   49.709588 -112.87023 63.1606455
    589    .04712  52.7516506 -113.05309  60.301435
    590     .0472   55.745735 -113.13311 57.3873795
    591    .04728  58.6891178 -113.11025 54.4211294
    592    .04736   61.579122  -112.9845 51.4053826
    593    .04744  64.4131192   -112.756 48.3428818
    594    .04752  67.1885317 -112.42494 45.2364125
    595     .0476  69.9028354 -111.99164 42.0888001
    596    .04768  72.5535614 -111.45647 38.9029073
    597    .04776   75.138299 -110.81993 35.6816318
    598    .04784  77.6546973  -110.0826 32.4279034
    599    .04792  80.1004675 -109.24515 29.1446813
    600      .048  82.4733853 -108.30834 25.8349517
    601    .04808  84.7712924 -107.27302 22.5017249
    602    .04816  86.9920988 -106.14013 19.1480325
    603    .04824  89.1337848 -104.91071 15.7769247
    604    .04832  91.1944023 -103.58587 12.3914675
    605     .0484  93.1720772 -102.16682 8.99474012
    606    .04848  95.0650109 -100.65484 5.58983191
    607    .04856  96.8714816 -99.051321 2.17983966
    608    .04864  98.5898464 -97.357711 -1.2321352
    609    .04872  100.218542 -95.575553 -4.6429894
    610     .0488  101.756088 -93.706467 -8.0496207
    611    .04888  103.201085 -91.752155 -11.448931
    612    .04896   104.55222 -89.714392 -14.837828
    613    .04904  105.808262 -87.595033  -18.21323
    614    .04912  106.968071 -85.396005 -21.572067
    615     .0492  108.030591 -83.119308 -24.911283
    616    .04928  108.994855 -80.767013 -28.227843
    617    .04936  109.859987 -78.341259 -31.518729
    618    .04944    110.6252 -75.844253 -34.780948
    619    .04952  111.289798 -73.278265 -38.011533
    620     .0496  111.853176  -70.64563 -41.207547
    621    .04968  112.314822 -67.948741 -44.366081
    622    .04976  112.674317 -65.190052 -47.484264
    623    .04984  112.931332 -62.372072 -50.559259
    624    .04992  113.085635 -59.497364 -53.588271
    625       .05  113.137085 -56.568542 -56.568542
    626    .05008  84.8142261 -40.191203 -44.623023
    627    .05016   84.698499 -37.919445 -46.779054
    628    .05024  84.5057374 -35.613198 -48.892539
    629    .05032  84.2361167 -33.274561 -50.961556
    630     .0504  83.8898821  -30.90566 -52.984222
    631    .05048  83.4673485  -28.50865 -54.958699
    632    .05056  82.9689002 -26.085711 -56.883189
    633    .05064  82.3949905 -23.639046 -58.755944
    634    .05072  81.7461414 -21.170882 -60.575259
    635     .0508  81.0229431 -18.683462 -62.339481
    636    .05088  80.2260533  -16.17905 -64.047003
    637    .05096  79.3561969 -13.659922 -65.696274
    638    .05104  78.4141648 -11.128371 -67.285794
    639    .05112   77.400814 -8.5866981 -68.814116
    640     .0512  76.3170661 -6.0372155 -70.279851
    641    .05128  75.1639067  -3.482242 -71.681665
    642    .05136  73.9423848 -.92410138 -73.018283
    643    .05144  72.6536112 1.63487975 -74.288491
    644    .05152  71.2987582 4.19237393 -75.491132
    645     .0516  69.8790579 6.74605509 -76.625113
    646    .05168  68.3958017 9.29360062 -77.689402
    647    .05176  66.8503386 11.8326935 -78.683032
    648    .05184  65.2440741 14.3610244 -79.605099
    649    .05192  63.5784693 16.8762937 -80.454763
    650      .052   61.855039 19.3762138 -81.231253
    651    .05208  60.0753507  21.858511 -81.933862
    652    .05216   58.241023 24.3209275  -82.56195
    653    .05224  56.3537243 26.7612238 -83.114948
    654    .05232  54.4151711 29.1771805 -83.592352
    655     .0524  52.4271265 31.5666001 -83.993727
    656    .05248  50.3913988 33.9273094 -84.318708
    657    .05256  48.3098394 36.2571613 -84.567001
    658    .05264  46.1843415 38.5540369 -84.738378
    659    .05272  44.0168383 40.8158471 -84.832685
    660     .0528  41.8093012 43.0405346 -84.849836
    661    .05288   39.563738 45.2260763 -84.789814
    662    .05296   37.282191 47.3704841 -84.652675
    663    .05304  34.9667353 49.4718079 -84.438543
    664    .05312  32.6194769 51.5281364 -84.147613
    665     .0532  30.2425507 53.5375993  -83.78015
    666    .05328  27.8381184  55.498369 -83.336487
    667    .05336   25.408367 57.4086622 -82.817029
    668    .05344  22.9555063 59.2667415 -82.222248
    669    .05352  20.4817672 61.0709168 -81.552684
    670     .0536  17.9893998 62.8195473 -80.808947
    671    .05368  15.4806707 64.5110425 -79.991713
    672    .05376  12.9578617  66.143864 -79.101726
    673    .05384  10.4232674 67.7165268 -78.139794
    674    .05392  7.87919292 69.2276005 -77.106793
    675      .054  5.32795224 70.6757107 -76.003663
    676    .05408  2.77186572 72.0595404 -74.831406
    677    .05416  .213258156 73.3778309 -73.591089
    678    .05424  -2.3455434 74.6293833  -72.28384
    679    .05432  -4.9022116 75.8130592 -70.910848
    680     .0544  -7.4544212 76.9277821 -69.473361
    681    .05448  -9.9998509 77.9725382 -67.972687
    682    .05456  -12.536186 78.9463771 -66.410191
    683    .05464  -15.061118 79.8484132 -64.787295
    684    .05472  -17.572353 80.6778261 -63.105473
    685     .0548  -20.067605 81.4338613 -61.366256
    686    .05488  -22.544606 82.1158314 -59.571226
    687    .05496  -25.001102  82.723116 -57.722014
    688    .05504  -27.434859 83.2551627 -55.820304
    689    .05512  -29.843663 83.7114878 -53.867824
    690     .0552  -32.225325 84.0916761 -51.866351
    691    .05528  -34.577677 84.3953818 -49.817705
    692    .05536   -36.89858 84.6223288 -47.723749
    693    .05544  -39.185923 84.7723106 -45.586387
    694    .05552  -41.437627 84.8451908 -43.407564
    695     .0556  -43.651642 84.8409032 -41.189261
    696    .05568  -45.825955 84.7594516 -38.933496
    697    .05576  -47.958589   84.60091 -36.642321
    698    .05584  -50.047604 84.3654228 -34.317818
    699    .05592    -52.0911 84.0532041 -31.962104
    700      .056  -54.087219 83.6645378 -29.577319
    701    .05608  -56.034144 83.1997775 -27.165633
    702    .05616  -57.930106 82.6593459  -24.72924
    703    .05624  -59.773379 82.0437344 -22.270355
    704    .05632  -61.562288  81.353503 -19.791215
    705     .0564  -63.295205 80.5892794 -17.294075
    706    .05648  -64.970554 79.7517589 -14.781205
    707    .05656  -66.586811 78.8417029 -12.254892
    708    .05664  -68.142507 77.8599394 -9.7174322
    709    .05672  -69.636226 76.8073612 -7.1711348
    710     .0568  -71.066611 75.6849256  -4.618315
    711    .05688  -72.432359 74.4936536 -2.0612949
    712    .05696  -73.732229 73.2346285 .497600036
    713    .05704  -74.965038 71.9089955 3.05604238
    714    .05712  -76.129666 70.5179603 5.61170522
    715     .0572  -77.225052 69.0627881 8.16226413
    716    .05728  -78.250202 67.5448023 10.7053993
    717    .05736  -79.204181 65.9653835 13.2387979
    718    .05744  -80.086124 64.3259684 15.7601555
    719    .05752  -80.895227 62.6280478 18.2671791
    720     .0576  -81.630755 60.8731662 20.7575884
    721    .05768  -82.292038 59.0629197 23.2291184
    722    .05776  -82.878476 57.1989545 25.6795212
    723    .05784  -83.389534 55.2829662 28.1065681
    724    .05792  -83.824749 53.3166972 30.5080517
    725      .058  -84.183724 51.3019359 32.8817878
    726    .05808  -84.466132 49.2405149 35.2256175
    727    .05816  -84.671718 47.1343089 37.5374089
    728    .05824  -84.800293 44.9852336 39.8150596
    729    .05832  -84.851742 42.7952436  42.056498
    730     .0584  -84.826016 40.5663307 44.2596854
    731    .05848   -84.72314 38.3005222 46.4226179
    732    .05856  -84.543207 35.9998789 48.5433285
    733    .05864  -84.286381 33.6664931 50.6198883
    734    .05872  -83.952896 31.3024873 52.6504085
    735     .0588  -83.543054 28.9100113 54.6330425
    736    .05888  -83.057228 26.4912414  56.565987
    737    .05896  -82.495861 24.0483772 58.4474839
    738    .05904  -81.859463 21.5836408 60.2758221
    739    .05912  -81.148612 19.0992737 62.0493385
    740     .0592  -80.363956 16.5975356 63.7664203
    741    .05928  -79.506207 14.0807018 65.4255055
    742    .05936  -78.576147 11.5510614 67.0250854
    743    .05944   -77.57462  9.0109151 68.5637051
    744    .05952  -76.502538 6.46257329 70.0399651
    745     .0596  -75.360876 3.90835369 71.4525228
    746    .05968  -74.150673 1.35057938 72.8000934
    747    .05976  -72.873028 -1.2084233 74.0814514
    748    .05984  -71.529104 -3.7663269 75.2954312
    749    .05992  -70.120124  -6.320805 76.4409288
    750       .06  -68.647368 -8.8695342 77.5169023
    751    .06008  -67.112177 -11.410196 78.5223732
    752    .06016  -65.515946 -13.940481 79.4564268
    753    .06024  -63.860127 -16.458086 80.3182138
    754    .06032  -62.146227 -18.960723 81.1069502
    755     .0604  -60.375804 -21.446115 81.8219187
    756    .06048  -58.550468 -23.912001 82.4624691
    757    .06056   -56.67188 -26.356138 83.0280187
    758    .06064  -54.741748 -28.776305 83.5180532
    759    .06072  -52.761828 -31.170299 83.9321268
    760     .0608   -50.73392 -33.535943 84.2698631
    761    .06088  -48.659869 -35.871086 84.5309547
    762    .06096  -46.541561 -38.173603 84.7151643
    763    .06104  -44.380923 -40.441402 84.8223242
    764    .06112  -42.179919 -42.672418 84.8523371
    765     .0612  -39.940553 -44.864623 84.8051756
    766    .06128   -37.66486 -47.016023 84.6808826
    767    .06136   -35.35491 -49.124661 84.4795712
    768    .06144  -33.012805  -51.18862 84.2014245
    769    .06152  -30.640674 -53.206021 83.8466954
    770     .0616  -28.240675 -55.175032 83.4157065
    771    .06168   -25.81499  -57.09386   82.90885
    772    .06176  -23.365827  -58.96076 82.3265867
    773    .06184  -20.895412 -60.774034 81.6694462
    774    .06192  -18.405992 -62.532034 80.9380262
    775      .062  -15.899832  -64.23316  80.132992
    776    .06208   -13.37921 -65.875865 79.2550757
    777    .06216   -10.84642 -67.458655 78.3050759
    778    .06224  -8.3037656 -68.980091 77.2838565
    779    .06232  -5.7535583 -70.438788 76.1923463
    780     .0624   -3.198118  -71.83342 75.0315382
    781    .06248  -.63976908 -73.162719 73.8024879
    782    .06256  1.91916176 -74.425475 72.5063131
    783    .06264   4.4763471  -75.62054 71.1441929
    784    .06272  7.02946113 -76.746827 69.7173661
    785     .0628  9.57618178 -77.803312 68.2271303
    786    .06288  12.1141928 -78.789034  66.674841
    787    .06296  14.6411857 -79.703096 65.0619101
    788    .06304  17.1548623 -80.544667 63.3898044
    789    .06312  19.6529363 -81.312981 61.6600448
    790     .0632  22.1331357  -82.00734 59.8742046
    791    .06328  24.5932047 -82.627113  58.033908
    792    .06336  27.0309058 -83.171735 56.1408287
    793    .06344   29.444022 -83.640711 54.1966886
    794    .06352  31.8303584 -84.033614 52.2032558
    795     .0636  34.1877446 -84.350088 50.1623434
    796    .06368  36.5140367 -84.589844 48.0758077
    797    .06376  38.8071187 -84.752665 45.9455464
    798    .06384  41.0649051 -84.838402  43.773497
    799    .06392  43.2853424 -84.846977  41.561635
    800      .064  45.4664111 -84.778383 39.3119721
    801    .06408  47.6061275 -84.632682 37.0265544
    802    .06416  49.7025454 -84.410006 34.7074605
    803    .06424  51.7537582 -84.110558 32.3567998
    804    .06432  53.7579002  -83.73461 29.9767101
    805     .0644  55.7131487 -83.282505 27.5693561
    806    .06448  57.6177253 -82.754653 25.1369275
    807    .06456  59.4698978 -82.151534 22.6816364
    808    .06464  61.2679815 -81.473698 20.2057161
    809    .06472  63.0103413  -80.72176 17.7114185
    810     .0648  64.6953922 -79.896404  15.201012
    811    .06488  66.3216018 -78.998382   12.67678
    812    .06496   67.887491 -78.028509 10.1410183
    813    .06504  69.3916355 -76.987669 7.59603323
    814    .06512  70.8326674 -75.876807 5.04413944
    815     .0652  72.2092761 -74.696934 2.48765794
    816    .06528  73.5202093 -73.449123 -.07108612
    817    .06536   74.764275 -72.134509 -2.6297655
    818    .06544  75.9403415 -70.754288 -5.1860531
    819    .06552  77.0473392 -69.309715 -7.7376239
    820     .0656  78.0842613 -67.802104 -10.282157
    821    .06568  79.0501647 -66.232826 -12.817339
    822    .06576  79.9441709 -64.603308 -15.340863
    823    .06584  80.7654667 -62.915033 -17.850434
    824    .06592  81.5133053 -61.169535  -20.34377
    825      .066  82.1870063 -59.368403 -22.818603
    826    .06608  82.7859572 -57.513274 -25.272683
    827    .06616  83.3096131 -55.605837 -27.703776
    828    .06624  83.7574977 -53.647825 -30.109673
    829    .06632  84.1292037  -51.64102 -32.488184
    830     .0664  84.4243931 -49.587246 -34.837147
    831    .06648  84.6427973 -47.488372 -37.154425
    832    .06656  84.7842177 -45.346307  -39.43791
    833    .06664  84.8485257 -43.162999 -41.685527
    834    .06672  84.8356628 -40.940434 -43.895229
    835     .0668  84.7456407 -38.680632 -46.065009
    836    .06688  84.5785413  -36.38565 -48.192891
    837    .06696  84.3345165 -34.057575 -50.276942
    838    .06704  84.0137883 -31.698524 -52.315265
    839    .06712  83.6166484 -29.310642 -54.306006
    840     .0672   83.143458 -26.896103 -56.247355
    841    .06728  82.5946475   -24.4571 -58.137547
    842    .06736   81.970716 -21.995854 -59.974862
    843    .06744   81.272231 -19.514602 -61.757629
    844    .06752  80.4998278 -17.015602 -63.484226
    845     .0676  79.6542089 -14.501125 -65.153084
    846    .06768  78.7361434  -11.97346 -66.762684
    847    .06776  77.7464663 -9.4349044 -68.311562
    848    .06784  76.6860777 -6.8877678  -69.79831
    849    .06792  75.5559421 -4.3343666 -71.221576
    850      .068  74.3570873 -1.7770232 -72.580064
    851    .06808  73.0906037 .781936327  -73.87254
    852    .06816  71.7576432 3.34018472 -75.097828
    853    .06824  70.3594181 5.89539517 -76.254813
    854    .06832  68.8972001 8.44524368 -77.342444
    855     .0684  67.3723192 10.9874111  -78.35973
    856    .06848  65.7861623 13.5195854 -79.305748
    857    .06856  64.1401719 16.0394633 -80.179635
    858    .06864  62.4358451 18.5447532 -80.980598
    859    .06872  60.6747321 21.0331764 -81.707909
    860     .0688  58.8584346 23.5024696 -82.360904
    861    .06888  56.9886045  25.950387 -82.938991
    862    .06896  55.0669425 28.3747021 -83.441645
    863    .06904  53.0951964 30.7732101 -83.868406
    864    .06912  51.0751594 33.1437294 -84.218889
    865     .0692  49.0086689  35.484104 -84.492773
    866    .06928  46.8976043 37.7922054  -84.68981
    867    .06936  44.7438857 40.0659342  -84.80982
    868    .06944  42.5494719 42.3032225 -84.852694
    869    .06952  40.3163588 44.5020354 -84.818394
    870     .0696  38.0465774 46.6603731 -84.706951
    871    .06968  35.7421921 48.7762726 -84.518465
    872    .06976  33.4052988 50.8478093 -84.253108
    873    .06984  31.0380229 52.8730993 -83.911122
    874    .06992  28.6425175 54.8503005 -83.492818
    875       .07  26.2209614 56.7776145 -82.998576
    876    .07008  23.7755569 58.6532886 -82.428845
    877    .07016  21.3085282 60.4756167 -81.784145
    878    .07024  18.8221191 62.2429413  -81.06506
    879    .07032  16.3185911 63.9536551 -80.272246
    880     .0704   13.800221 65.6062023 -79.406423
    881    .07048  11.2692995 67.1990796 -78.468379
    882    .07056   8.7281284 68.7308385 -77.458967
    883    .07064  6.17901893 70.2000857 -76.379105
    884    .07072  3.62428955  71.605485 -75.229775
    885     .0708  1.06626384 72.9457581 -74.012022
    886    .07088  -1.4927317  74.219686 -72.726954
    887    .07096  -4.0503695 75.4261101 -71.375741
    888    .07104  -6.6043235 76.5639332  -69.95961
    889    .07112  -9.1522707 77.6321202  -68.47985
    890     .0712  -11.691894 78.6296998 -66.937806
    891    .07128  -14.220883 79.5557646 -65.334882
    892    .07136  -16.736938 80.4094723 -63.672534
    893    .07144  -19.237771 81.1900465 -61.952276
    894    .07152  -21.721106 81.8967772 -60.175671
    895     .0716  -24.184686 82.5290217 -58.344335
    896    .07168   -26.62627 83.0862049 -56.459935
    897    .07176  -29.043637   83.56782 -54.524183
    898    .07184  -31.434588 83.9734291 -52.538841
    899    .07192  -33.796949 84.3026631 -50.505714
    900      .072  -36.128571 84.5552227 -48.426652
    901    .07208  -38.427334 84.7308782 -46.303545
    902    .07216  -40.691146 84.8294698 -44.138324
    903    .07224  -42.917949 84.8509078 -41.932958
    904    .07232  -45.105718 84.7951727 -39.689455
    905     .0724  -47.252463 84.6623153 -37.409852
    906    .07248  -49.356231 84.4524563 -35.096226
    907    .07256  -51.415108 84.1657867 -32.750678
    908    .07264  -53.427223  83.802567 -30.375344
    909    .07272  -55.390745 83.3631279 -27.972383
    910     .0728  -57.303889 82.8478687  -25.54398
    911    .07288  -59.164914 82.2572583 -23.092345
    912    .07296  -60.972127 81.5918338 -20.619707
    913    .07304  -62.723886 80.8522004 -18.128315
    914    .07312  -64.418596 80.0390308 -15.620435
    915     .0732  -66.054716 79.1530646 -13.098348
    916    .07328  -67.630759 78.1951076 -10.564348
    917    .07336  -69.145291 77.1660311 -8.0207398
    918    .07344  -70.596935  76.066771 -5.4698364
    919    .07352  -71.984369 74.8983271 -2.9139581
    920     .0736  -73.306333 73.6617622 -.35542959
    921    .07368  -74.561623 72.3582009 2.20342222
    922    .07376  -75.749099 70.9888287    4.76027
    923    .07384   -76.86768 69.5548913 7.31278824
    924    .07392  -77.916348 68.0576928  9.8586554
    925      .074  -78.894151 66.4985948  12.395556
    926    .07408  -79.800198 64.8790154 14.9211826
    927    .07416  -80.633666 63.2004277 17.4332383
    928    .07424  -81.393796 61.4643583 19.9294381
    929    .07432  -82.079898 59.6723862 22.4075119
    930     .0744  -82.691347 57.8261413 24.8652057
    931    .07448  -83.227587 55.9273027 27.3002843
    932    .07456   -83.68813 53.9775974 29.7105328
    933    .07464  -84.072558 51.9787988 32.0937593
    934    .07472  -84.380521 49.9327248  34.447796
    935     .0748  -84.611738 47.8412362  36.770502
    936    .07488     -84.766 45.7062354 39.0597647
    937    .07496  -84.843166 43.5296641  41.313502
    938    .07504  -84.843166  41.313502 43.5296641
    939    .07512     -84.766 39.0597647 45.7062354
    940     .0752  -84.611738  36.770502 47.8412362
    941    .07528  -84.380521  34.447796 49.9327248
    942    .07536  -84.072558 32.0937593 51.9787988
    943    .07544   -83.68813 29.7105328 53.9775974
    944    .07552  -83.227587 27.3002843 55.9273027
    945     .0756  -82.691347 24.8652057 57.8261413
    946    .07568  -82.079898 22.4075119 59.6723862
    947    .07576  -81.393796 19.9294381 61.4643583
    948    .07584  -80.633666 17.4332383 63.2004277
    949    .07592  -79.800198 14.9211826 64.8790154
    950      .076  -78.894151  12.395556 66.4985948
    951    .07608  -77.916348  9.8586554 68.0576928
    952    .07616   -76.86768 7.31278824 69.5548913
    953    .07624  -75.749099    4.76027 70.9888287
    954    .07632  -74.561623 2.20342222 72.3582009
    955     .0764  -73.306333 -.35542959 73.6617622
    956    .07648  -71.984369 -2.9139581 74.8983271
    957    .07656  -70.596935 -5.4698364  76.066771
    958    .07664  -69.145291 -8.0207398 77.1660311
    959    .07672  -67.630759 -10.564348 78.1951076
    960     .0768  -66.054716 -13.098348 79.1530646
    961    .07688  -64.418596 -15.620435 80.0390308
    962    .07696  -62.723886 -18.128315 80.8522004
    963    .07704  -60.972127 -20.619707 81.5918338
    964    .07712  -59.164914 -23.092345 82.2572583
    965     .0772  -57.303889  -25.54398 82.8478687
    966    .07728  -55.390745 -27.972383 83.3631279
    967    .07736  -53.427223 -30.375344  83.802567
    968    .07744  -51.415108 -32.750678 84.1657867
    969    .07752  -49.356231 -35.096226 84.4524563
    970     .0776  -47.252463 -37.409852 84.6623153
    971    .07768  -45.105718 -39.689455 84.7951727
    972    .07776  -42.917949 -41.932958 84.8509078
    973    .07784  -40.691146 -44.138324 84.8294698
    974    .07792  -38.427334 -46.303545 84.7308782
    975      .078  -36.128571 -48.426652 84.5552227
    976    .07808  -33.796949 -50.505714 84.3026631
    977    .07816  -31.434588 -52.538841 83.9734291
    978    .07824  -29.043637 -54.524183   83.56782
    979    .07832   -26.62627 -56.459935 83.0862049
    980     .0784  -24.184686 -58.344335 82.5290217
    981    .07848  -21.721106 -60.175671 81.8967772
    982    .07856  -19.237771 -61.952276 81.1900465
    983    .07864  -16.736938 -63.672534 80.4094723
    984    .07872  -14.220883 -65.334882 79.5557646
    985     .0788  -11.691894 -66.937806 78.6296998
    986    .07888  -9.1522707  -68.47985 77.6321202
    987    .07896  -6.6043235  -69.95961 76.5639332
    988    .07904  -4.0503695 -71.375741 75.4261101
    989    .07912  -1.4927317 -72.726954  74.219686
    990     .0792  1.06626384 -74.012022 72.9457581
    991    .07928  3.62428955 -75.229775  71.605485
    992    .07936  6.17901893 -76.379105 70.2000857
    993    .07944   8.7281284 -77.458967 68.7308385
    994    .07952  11.2692995 -78.468379 67.1990796
    995     .0796   13.800221 -79.406423 65.6062023
    996    .07968  16.3185911 -80.272246 63.9536551
    997    .07976  18.8221191  -81.06506 62.2429413
    998    .07984  21.3085282 -81.784145 60.4756167
    999    .07992  23.7755569 -82.428845 58.6532886
   1000       .08  26.2209614 -82.998576 56.7776145
   1001    .08008  28.6425175 -83.492818 54.8503005
   1002    .08016  31.0380229 -83.911122 52.8730993
   1003    .08024  33.4052988 -84.253108 50.8478093
   1004    .08032  35.7421921 -84.518465 48.7762726
   1005     .0804  38.0465774 -84.706951 46.6603731
   1006    .08048  40.3163588 -84.818394 44.5020354
   1007    .08056  42.5494719 -84.852694 42.3032225
   1008    .08064  44.7438857  -84.80982 40.0659342
   1009    .08072  46.8976043  -84.68981 37.7922054
   1010     .0808  49.0086689 -84.492773  35.484104
   1011    .08088  51.0751594 -84.218889 33.1437294
   1012    .08096  53.0951964 -83.868406 30.7732101
   1013    .08104  55.0669425 -83.441645 28.3747021
   1014    .08112  56.9886045 -82.938991  25.950387
   1015     .0812  58.8584346 -82.360904 23.5024696
   1016    .08128  60.6747321 -81.707909 21.0331764
   1017    .08136  62.4358451 -80.980598 18.5447532
   1018    .08144  64.1401719 -80.179635 16.0394633
   1019    .08152  65.7861623 -79.305748 13.5195854
   1020     .0816  67.3723192  -78.35973 10.9874111
   1021    .08168  68.8972001 -77.342444 8.44524368
   1022    .08176  70.3594181 -76.254813 5.89539517
   1023    .08184  71.7576432 -75.097828 3.34018472
   1024    .08192  73.0906037  -73.87254 .781936328
   1025      .082  74.3570873 -72.580064 -1.7770232
   1026    .08208  75.5559421 -71.221576 -4.3343666
   1027    .08216  76.6860777  -69.79831 -6.8877678
   1028    .08224  77.7464663 -68.311562 -9.4349044
   1029    .08232  78.7361434 -66.762684  -11.97346
   1030     .0824  79.6542089 -65.153084 -14.501125
   1031    .08248  80.4998278 -63.484226 -17.015602
   1032    .08256   81.272231 -61.757629 -19.514602
   1033    .08264   81.970716 -59.974862 -21.995854
   1034    .08272  82.5946475 -58.137547   -24.4571
   1035     .0828   83.143458 -56.247355 -26.896103
   1036    .08288  83.6166484 -54.306006 -29.310642
   1037    .08296  84.0137883 -52.315265 -31.698524
   1038    .08304  84.3345165 -50.276942 -34.057575
   1039    .08312  84.5785413 -48.192891  -36.38565
   1040     .0832  84.7456407 -46.065009 -38.680632
   1041    .08328  84.8356628 -43.895229 -40.940434
   1042    .08336  84.8485257 -41.685527 -43.162999
   1043    .08344  84.7842177  -39.43791 -45.346307
   1044    .08352  84.6427973 -37.154425 -47.488372
   1045     .0836  84.4243931 -34.837147 -49.587246
   1046    .08368  84.1292037 -32.488184  -51.64102
   1047    .08376  83.7574977 -30.109673 -53.647825
   1048    .08384  83.3096131 -27.703776 -55.605837
   1049    .08392  82.7859572 -25.272683 -57.513274
   1050      .084  82.1870063 -22.818603 -59.368403
   1051    .08408  81.5133053  -20.34377 -61.169535
   1052    .08416  80.7654667 -17.850434 -62.915033
   1053    .08424  79.9441709 -15.340863 -64.603308
   1054    .08432  79.0501647 -12.817339 -66.232826
   1055     .0844  78.0842613 -10.282157 -67.802104
   1056    .08448  77.0473392 -7.7376239 -69.309715
   1057    .08456  75.9403415 -5.1860531 -70.754288
   1058    .08464   74.764275 -2.6297655 -72.134509
   1059    .08472  73.5202093 -.07108612 -73.449123
   1060     .0848  72.2092761 2.48765794 -74.696934
   1061    .08488  70.8326674 5.04413944 -75.876807
   1062    .08496  69.3916355 7.59603323 -76.987669
   1063    .08504   67.887491 10.1410183 -78.028509
   1064    .08512  66.3216018   12.67678 -78.998382
   1065     .0852  64.6953922  15.201012 -79.896404
   1066    .08528  63.0103413 17.7114185  -80.72176
   1067    .08536  61.2679815 20.2057161 -81.473698
   1068    .08544  59.4698978 22.6816364 -82.151534
   1069    .08552  57.6177253 25.1369275 -82.754653
   1070     .0856  55.7131487 27.5693561 -83.282505
   1071    .08568  53.7579002 29.9767101  -83.73461
   1072    .08576  51.7537582 32.3567998 -84.110558
   1073    .08584  49.7025454 34.7074605 -84.410006
   1074    .08592  47.6061275 37.0265544 -84.632682
   1075      .086  45.4664111 39.3119721 -84.778383
   1076    .08608  43.2853424  41.561635 -84.846977
   1077    .08616  41.0649051  43.773497 -84.838402
   1078    .08624  38.8071187 45.9455464 -84.752665
   1079    .08632  36.5140367 48.0758077 -84.589844
   1080     .0864  34.1877446 50.1623434 -84.350088
   1081    .08648  31.8303584 52.2032558 -84.033614
   1082    .08656   29.444022 54.1966886 -83.640711
   1083    .08664  27.0309058 56.1408287 -83.171735
   1084    .08672  24.5932047  58.033908 -82.627113
   1085     .0868  22.1331357 59.8742046  -82.00734
   1086    .08688  19.6529363 61.6600448 -81.312981
   1087    .08696  17.1548623 63.3898044 -80.544667
   1088    .08704  14.6411857 65.0619101 -79.703096
   1089    .08712  12.1141928  66.674841 -78.789034
   1090     .0872  9.57618178 68.2271303 -77.803312
   1091    .08728  7.02946113 69.7173661 -76.746827
   1092    .08736   4.4763471 71.1441929  -75.62054
   1093    .08744  1.91916176 72.5063131 -74.425475
   1094    .08752  -.63976908 73.8024879 -73.162719
   1095     .0876   -3.198118 75.0315382  -71.83342
   1096    .08768  -5.7535583 76.1923463 -70.438788
   1097    .08776  -8.3037656 77.2838565 -68.980091
   1098    .08784   -10.84642 78.3050759 -67.458655
   1099    .08792   -13.37921 79.2550757 -65.875865
   1100      .088  -15.899832  80.132992  -64.23316
   1101    .08808  -18.405992 80.9380262 -62.532034
   1102    .08816  -20.895412 81.6694462 -60.774034
   1103    .08824  -23.365827 82.3265867  -58.96076
   1104    .08832   -25.81499   82.90885  -57.09386
   1105     .0884  -28.240675 83.4157065 -55.175032
   1106    .08848  -30.640674 83.8466954 -53.206021
   1107    .08856  -33.012805 84.2014245  -51.18862
   1108    .08864   -35.35491 84.4795712 -49.124661
   1109    .08872   -37.66486 84.6808826 -47.016023
   1110     .0888  -39.940553 84.8051756 -44.864623
   1111    .08888  -42.179919 84.8523371 -42.672418
   1112    .08896  -44.380923 84.8223242 -40.441402
   1113    .08904  -46.541561 84.7151643 -38.173603
   1114    .08912  -48.659869 84.5309547 -35.871086
   1115     .0892   -50.73392 84.2698631 -33.535943
   1116    .08928  -52.761828 83.9321268 -31.170299
   1117    .08936  -54.741748 83.5180532 -28.776305
   1118    .08944   -56.67188 83.0280187 -26.356138
   1119    .08952  -58.550468 82.4624691 -23.912001
   1120     .0896  -60.375804 81.8219187 -21.446115
   1121    .08968  -62.146227 81.1069502 -18.960723
   1122    .08976  -63.860127 80.3182138 -16.458086
   1123    .08984  -65.515946 79.4564268 -13.940481
   1124    .08992  -67.112177 78.5223732 -11.410196
   1125       .09  -68.647368 77.5169023 -8.8695342
   1126    .09008  -70.120124 76.4409288  -6.320805
   1127    .09016  -71.529104 75.2954312 -3.7663269
   1128    .09024  -72.873028 74.0814514 -1.2084233
   1129    .09032  -74.150673 72.8000934 1.35057938
   1130     .0904  -75.360876 71.4525228 3.90835369
   1131    .09048  -76.502538 70.0399651 6.46257329
   1132    .09056   -77.57462 68.5637051  9.0109151
   1133    .09064  -78.576147 67.0250854 11.5510614
   1134    .09072  -79.506207 65.4255055 14.0807018
   1135     .0908  -80.363956 63.7664203 16.5975356
   1136    .09088  -81.148612 62.0493385 19.0992737
   1137    .09096  -81.859463 60.2758221 21.5836408
   1138    .09104  -82.495861 58.4474839 24.0483772
   1139    .09112  -83.057228  56.565987 26.4912414
   1140     .0912  -83.543054 54.6330425 28.9100113
   1141    .09128  -83.952896 52.6504085 31.3024873
   1142    .09136  -84.286381 50.6198883 33.6664931
   1143    .09144  -84.543207 48.5433285 35.9998789
   1144    .09152   -84.72314 46.4226179 38.3005222
   1145     .0916  -84.826016 44.2596854 40.5663307
   1146    .09168  -84.851742  42.056498 42.7952436
   1147    .09176  -84.800293 39.8150596 44.9852336
   1148    .09184  -84.671718 37.5374089 47.1343089
   1149    .09192  -84.466132 35.2256175 49.2405149
   1150      .092  -84.183724 32.8817878 51.3019359
   1151    .09208  -83.824749 30.5080517 53.3166972
   1152    .09216  -83.389534 28.1065681 55.2829662
   1153    .09224  -82.878476 25.6795212 57.1989545
   1154    .09232  -82.292038 23.2291184 59.0629197
   1155     .0924  -81.630755 20.7575884 60.8731662
   1156    .09248  -80.895227 18.2671791 62.6280478
   1157    .09256  -80.086124 15.7601555 64.3259684
   1158    .09264  -79.204181 13.2387979 65.9653835
   1159    .09272  -78.250202 10.7053993 67.5448023
   1160     .0928  -77.225052 8.16226413 69.0627881
   1161    .09288  -76.129666 5.61170522 70.5179603
   1162    .09296  -74.965038 3.05604238 71.9089955
   1163    .09304  -73.732229 .497600036 73.2346285
   1164    .09312  -72.432359 -2.0612949 74.4936536
   1165     .0932  -71.066611  -4.618315 75.6849256
   1166    .09328  -69.636226 -7.1711348 76.8073612
   1167    .09336  -68.142507 -9.7174322 77.8599394
   1168    .09344  -66.586811 -12.254892 78.8417029
   1169    .09352  -64.970554 -14.781205 79.7517589
   1170     .0936  -63.295205 -17.294075 80.5892794
   1171    .09368  -61.562288 -19.791215  81.353503
   1172    .09376  -59.773379 -22.270355 82.0437344
   1173    .09384  -57.930106  -24.72924 82.6593459
   1174    .09392  -56.034144 -27.165633 83.1997775
   1175      .094  -54.087219 -29.577319 83.6645378
   1176    .09408    -52.0911 -31.962104 84.0532041
   1177    .09416  -50.047604 -34.317818 84.3654228
   1178    .09424  -47.958589 -36.642321   84.60091
   1179    .09432  -45.825955 -38.933496 84.7594516
   1180     .0944  -43.651642 -41.189261 84.8409032
   1181    .09448  -41.437627 -43.407564 84.8451908
   1182    .09456  -39.185923 -45.586387 84.7723106
   1183    .09464   -36.89858 -47.723749 84.6223288
   1184    .09472  -34.577677 -49.817705 84.3953818
   1185     .0948  -32.225325 -51.866351 84.0916761
   1186    .09488  -29.843663 -53.867824 83.7114878
   1187    .09496  -27.434859 -55.820304 83.2551627
   1188    .09504  -25.001102 -57.722014  82.723116
   1189    .09512  -22.544606 -59.571226 82.1158314
   1190     .0952  -20.067605 -61.366256 81.4338613
   1191    .09528  -17.572353 -63.105473 80.6778261
   1192    .09536  -15.061118 -64.787295 79.8484132
   1193    .09544  -12.536186 -66.410191 78.9463771
   1194    .09552  -9.9998509 -67.972687 77.9725382
   1195     .0956  -7.4544212 -69.473361 76.9277821
   1196    .09568  -4.9022116 -70.910848 75.8130592
   1197    .09576  -2.3455434  -72.28384 74.6293833
   1198    .09584  .213258156 -73.591089 73.3778309
   1199    .09592  2.77186572 -74.831406 72.0595404
   1200      .096  5.32795224 -76.003663 70.6757107
   1201    .09608  7.87919292 -77.106793 69.2276005
   1202    .09616  10.4232674 -78.139794 67.7165268
   1203    .09624  12.9578617 -79.101726  66.143864
   1204    .09632  15.4806707 -79.991713 64.5110425
   1205     .0964  17.9893998 -80.808947 62.8195473
   1206    .09648  20.4817672 -81.552684 61.0709168
   1207    .09656  22.9555063 -82.222248 59.2667415
   1208    .09664   25.408367 -82.817029 57.4086622
   1209    .09672  27.8381184 -83.336487  55.498369
   1210     .0968  30.2425507  -83.78015 53.5375993
   1211    .09688  32.6194769 -84.147613 51.5281364
   1212    .09696  34.9667353 -84.438543 49.4718079
   1213    .09704   37.282191 -84.652675 47.3704841
   1214    .09712   39.563738 -84.789814 45.2260763
   1215     .0972  41.8093012 -84.849836 43.0405347
   1216    .09728  44.0168383 -84.832685 40.8158471
   1217    .09736  46.1843415 -84.738378 38.5540369
   1218    .09744  48.3098394 -84.567001 36.2571613
   1219    .09752  50.3913988 -84.318708 33.9273094
   1220     .0976  52.4271265 -83.993727 31.5666001
   1221    .09768  54.4151711 -83.592352 29.1771805
[...]
   1736    .13888  -56.239893 113.136449 -56.896557
   1737    .13896  -59.174564 113.096432 -53.921869
   1738    .13904  -62.055414 112.953552 -50.898138
   1739    .13912  -64.879825  112.70794 -47.828114
   1740     .1392  -67.645227 112.359817 -44.714591
   1741    .13928  -70.349104 111.909502 -41.560398
   1742    .13936  -72.988998 111.357404 -38.368406
   1743    .13944  -75.562507 110.704025 -35.141518
   1744    .13952  -78.067291 109.949959 -31.882668
   1745     .1396  -80.501072 109.095892 -28.594819
   1746    .13968  -82.861636   108.1426 -25.280964
   1747    .13976  -85.146836 107.090952 -21.944115
   1748    .13984  -87.354594 105.941902 -18.587308
   1749    .13992  -89.482902 104.696498 -15.213595
   1750       .14  -91.529824  103.35587 -11.826046
   1751    .14008  -93.493498 101.921238   -8.42774
   1752    .14016  -95.372139 100.393908 -5.0217692
   1753    .14024  -97.164037 98.7752685 -1.6112311
   1754    .14032  -98.867564 97.0667912  1.8007725
   1755     .1404  -100.48117 95.2700304 5.21113825
   1756    .14048  -102.00338 93.3866201 8.61676439
   1757    .14056  -103.43283 91.4182734 12.0145535
   1758    .14064   -104.7682 89.3667806 15.4014151
   1759    .14072  -106.00828 87.2340074  18.774269
   1760     .1408  -107.15194 85.0218937 22.1300474
   1761    .14088  -108.19815 82.7324514 25.4656983
   1762    .14096  -109.14595 80.3677628 28.7781877
   1763    .14104  -109.99448 77.9299786  32.064503
   1764    .14112  -110.74297  75.421316 35.3216551
   1765     .1412  -111.39074 72.8440567 38.5466818
   1766    .14128  -111.93719 70.2005447 41.7366497
   1767    .14136  -112.38184 67.4931844 44.8886575
   1768    .14144  -112.72428  64.724438 47.9998385
   1769    .14152  -112.96419 61.8968239  51.067363
   1770     .1416  -113.10135 59.0129138 54.0884409
   1771    .14168  -113.13566 56.0753306 57.0603248
   1772    .14176  -113.06706 53.0867462 59.9803114
   1773    .14184  -112.89562 50.0498786 62.8457452
   1774    .14192  -112.62151 46.9674899 65.6540198
   1775      .142  -112.24496 43.8423837 68.4025812
   1776    .14208  -111.76633 40.6774022 71.0889296
   1777    .14216  -111.18605 37.4754241 73.7106216
   1778    .14224  -110.50463 34.2393615 76.2652727
   1779    .14232  -109.72272 30.9721578 78.7505595
   1780     .1424  -108.84101 27.6767845 81.1642216
   1781    .14248   -107.8603 24.3562387 83.5040638
   1782    .14256   -106.7815 21.0135407 85.7679578
   1783    .14264  -105.60558 17.6517305 87.9538447
   1784    .14272   -104.3336 14.2738658 90.0597363
   1785     .1428  -102.96674 10.8830188 92.0837174
   1786    .14288  -101.50622 7.48227362 94.0239471
   1787    .14296  -99.953384 4.07472318 95.8786607
   1788    .14304  -98.309638 .663466714 97.6461713
   1789    .14312  -96.576478 -2.7483932 99.3248714
   1790     .1432  -94.755481 -6.1577534 100.913234
   1791    .14328  -92.848302  -9.561513 102.409815
   1792    .14336  -90.856676 -12.956576 103.813253
   1793    .14344  -88.782415 -16.339855 105.122271
   1794    .14352  -86.627405 -19.708273 106.335678
   1795     .1436  -84.393607 -23.058766 107.452373
   1796    .14368  -82.083051 -26.388287 108.471337
   1797    .14376  -79.697839 -29.693807 109.391646
   1798    .14384  -77.240141  -32.97232 110.212461
   1799    .14392  -74.712192 -36.220844 110.933037
   1800      .144  -72.116292 -39.436425 111.552717
   1801    .14408  -69.454801 -42.616138 112.070939
   1802    .14416  -66.730139 -45.757091  112.48723
   1803    .14424  -63.944786 -48.856428 112.801213
   1804    .14432  -61.101274 -51.911328 113.012602
   1805     .1444  -58.202189 -54.919015 113.121204
   1806    .14448  -55.250169 -57.876752 113.126921
   1807    .14456  -52.247898  -60.78185 113.029747
   1808    .14464  -49.198107 -63.631665 112.829772
   1809    .14472  -46.103569 -66.423607 112.527176
   1810     .1448    -42.9671 -69.155135 112.122235
   1811    .14488  -39.791551 -71.823766 111.615317
   1812    .14496  -36.579812 -74.427072 111.006884
   1813    .14504  -33.334802 -76.962686 110.297488
   1814    .14512  -30.059474 -79.428301 109.487775
   1815     .1452  -26.756807 -81.821675 108.578482
   1816    .14528  -23.429804 -84.140631 107.570435
   1817    .14536  -20.081491  -86.38306 106.464551
   1818    .14544  -16.714914 -88.546922 105.261836
   1819    .14552  -13.333135  -90.63025 103.963384
   1820     .1456  -9.9392283 -92.631148 102.570376
   1821    .14568  -6.5362821 -94.547797 101.084079
   1822    .14576  -3.1273912 -96.378453 99.5058444
   1823    .14584  .284344208 -98.121452 97.8371079
   1824    .14592  3.69582097 -99.775208 96.0793872
   1825      .146  7.10393632 -101.33822 94.2342809
   1826    .14608  10.5055906 -102.80906 92.3034673
   1827    .14616  13.8976898 -104.18639 90.2887024
   1828    .14624  17.2771489 -105.46897 88.1918187
   1829    .14632  20.6408942 -106.65562 86.0147233
   1830     .1464  23.9858663 -107.74526 83.7593963
   1831    .14648   27.309023 -108.73691  81.427889
   1832    .14656  30.6073417 -109.62966  79.022322
   1833    .14664  33.8778226 -110.42271  76.544883
   1834    .14672  37.1174912 -111.11532 73.9978254
   1835     .1468  40.3234009 -111.70687 71.3834657
   1836    .14688  43.4926359 -112.19682 68.7041818
   1837    .14696  46.6223138 -112.58472 65.9624105
   1838    .14704   49.709588 -112.87023 63.1606455
   1839    .14712  52.7516506 -113.05309  60.301435
   1840     .1472   55.745735 -113.13311 57.3873795
   1841    .14728  58.6891178 -113.11025 54.4211294
   1842    .14736   61.579122  -112.9845 51.4053826
   1843    .14744  64.4131192   -112.756 48.3428818
   1844    .14752  67.1885317 -112.42494 45.2364125
   1845     .1476  69.9028354 -111.99164 42.0888001
   1846    .14768  72.5535614 -111.45647 38.9029073
   1847    .14776   75.138299 -110.81993 35.6816318
   1848    .14784  77.6546973  -110.0826 32.4279034
   1849    .14792  80.1004675 -109.24515 29.1446813
   1850      .148  82.4733853 -108.30834 25.8349517
   1851    .14808  84.7712924 -107.27302 22.5017249
   1852    .14816  86.9920988 -106.14013 19.1480325
   1853    .14824  89.1337848 -104.91071 15.7769247
   1854    .14832  91.1944023 -103.58587 12.3914675
   1855     .1484  93.1720772 -102.16682 8.99474012
   1856    .14848  95.0650109 -100.65484 5.58983191
   1857    .14856  96.8714816 -99.051321 2.17983966
   1858    .14864  98.5898464 -97.357711 -1.2321352
   1859    .14872  100.218542 -95.575553 -4.6429894
   1860     .1488  101.756088 -93.706467 -8.0496207
   1861    .14888  103.201085 -91.752155 -11.448931
   1862    .14896   104.55222 -89.714392 -14.837828
   1863    .14904  105.808262 -87.595033  -18.21323
   1864    .14912  106.968071 -85.396005 -21.572067
   1865     .1492  108.030591 -83.119308 -24.911283
   1866    .14928  108.994855 -80.767013 -28.227843
   1867    .14936  109.859987 -78.341259 -31.518729
   1868    .14944    110.6252 -75.844253 -34.780948
   1869    .14952  111.289798 -73.278265 -38.011533
   1870     .1496  111.853176  -70.64563 -41.207547
   1871    .14968  112.314822 -67.948741 -44.366081
   1872    .14976  112.674317 -65.190052 -47.484264
   1873    .14984  112.931332 -62.372072 -50.559259
   1874    .14992  113.085635 -59.497364 -53.588271
   1875       .15  113.137085 -56.568542 -56.568542
   1876    .15008  113.085635 -53.588271 -59.497364
   1877    .15016  112.931332 -50.559259 -62.372072
   1878    .15024  112.674317 -47.484264 -65.190052
   1879    .15032  112.314822 -44.366081 -67.948741
   1880     .1504  111.853176 -41.207547  -70.64563
   1881    .15048  111.289798 -38.011533 -73.278265
   1882    .15056    110.6252 -34.780948 -75.844253
   1883    .15064  109.859987 -31.518729 -78.341259
   1884    .15072  108.994855 -28.227843 -80.767013
   1885     .1508  108.030591 -24.911283 -83.119308
   1886    .15088  106.968071 -21.572067 -85.396005
   1887    .15096  105.808262  -18.21323 -87.595033
   1888    .15104   104.55222 -14.837828 -89.714392
   1889    .15112  103.201085 -11.448931 -91.752155
   1890     .1512  101.756088 -8.0496207 -93.706467
   1891    .15128  100.218542 -4.6429894 -95.575553
   1892    .15136  98.5898464 -1.2321352 -97.357711
   1893    .15144  96.8714816 2.17983966 -99.051321
   1894    .15152  95.0650109 5.58983191 -100.65484
   1895     .1516  93.1720772 8.99474012 -102.16682
   1896    .15168  91.1944023 12.3914675 -103.58587
   1897    .15176  89.1337848 15.7769247 -104.91071
   1898    .15184  86.9920988 19.1480325 -106.14013
   1899    .15192  84.7712924 22.5017249 -107.27302
   1900      .152  82.4733853 25.8349517 -108.30834
   1901    .15208  80.1004675 29.1446813 -109.24515
   1902    .15216  77.6546973 32.4279034  -110.0826
   1903    .15224   75.138299 35.6816318 -110.81993
   1904    .15232  72.5535614 38.9029073 -111.45647
   1905     .1524  69.9028354 42.0888001 -111.99164
   1906    .15248  67.1885317 45.2364125 -112.42494
   1907    .15256  64.4131192 48.3428818   -112.756
   1908    .15264   61.579122 51.4053826  -112.9845
   1909    .15272  58.6891178 54.4211294 -113.11025
   1910     .1528   55.745735 57.3873795 -113.13311
   1911    .15288  52.7516506  60.301435 -113.05309
   1912    .15296   49.709588 63.1606455 -112.87023
   1913    .15304  46.6223138 65.9624105 -112.58472
   1914    .15312  43.4926359 68.7041818 -112.19682
   1915     .1532  40.3234009 71.3834657 -111.70687
   1916    .15328  37.1174912 73.9978254 -111.11532
   1917    .15336  33.8778226  76.544883 -110.42271
   1918    .15344  30.6073417  79.022322 -109.62966
   1919    .15352   27.309023  81.427889 -108.73691
   1920     .1536  23.9858663 83.7593963 -107.74526
   1921    .15368  20.6408942 86.0147233 -106.65562
   1922    .15376  17.2771489 88.1918187 -105.46897
   1923    .15384  13.8976898 90.2887024 -104.18639
   1924    .15392  10.5055906 92.3034673 -102.80906
   1925      .154  7.10393632 94.2342809 -101.33822
   1926    .15408  3.69582097 96.0793872 -99.775208
   1927    .15416  .284344208 97.8371079 -98.121452
   1928    .15424  -3.1273912 99.5058444 -96.378453
   1929    .15432  -6.5362821 101.084079 -94.547797
   1930     .1544  -9.9392283 102.570376 -92.631148
   1931    .15448  -13.333135 103.963384  -90.63025
   1932    .15456  -16.714914 105.261836 -88.546922
   1933    .15464  -20.081491 106.464551  -86.38306
   1934    .15472  -23.429804 107.570435 -84.140631
   1935     .1548  -26.756807 108.578482 -81.821675
   1936    .15488  -30.059474 109.487775 -79.428301
   1937    .15496  -33.334802 110.297488 -76.962686
   1938    .15504  -36.579812 111.006884 -74.427072
   1939    .15512  -39.791551 111.615317 -71.823766
   1940     .1552    -42.9671 112.122235 -69.155135
   1941    .15528  -46.103569 112.527176 -66.423607
   1942    .15536  -49.198107 112.829772 -63.631665
   1943    .15544  -52.247898 113.029747  -60.78185
   1944    .15552  -55.250169 113.126921 -57.876752
   1945     .1556  -58.202189 113.121204 -54.919015
   1946    .15568  -61.101274 113.012602 -51.911328
   1947    .15576  -63.944786 112.801213 -48.856428
   1948    .15584  -66.730139  112.48723 -45.757091
   1949    .15592  -69.454801 112.070939 -42.616138
   1950      .156  -72.116292 111.552717 -39.436425
   1951    .15608  -74.712192 110.933037 -36.220844
   1952    .15616  -77.240141 110.212461  -32.97232
   1953    .15624  -79.697839 109.391646 -29.693807
   1954    .15632  -82.083051 108.471337 -26.388287
   1955     .1564  -84.393607 107.452373 -23.058766
   1956    .15648  -86.627405 106.335678 -19.708273
   1957    .15656  -88.782415 105.122271 -16.339855
   1958    .15664  -90.856676 103.813253 -12.956576
   1959    .15672  -92.848302 102.409815  -9.561513
   1960     .1568  -94.755481 100.913234 -6.1577534
   1961    .15688  -96.576478 99.3248714 -2.7483932
   1962    .15696  -98.309638 97.6461713 .663466714
   1963    .15704  -99.953384 95.8786607 4.07472318
   1964    .15712  -101.50622 94.0239471 7.48227362
   1965     .1572  -102.96674 92.0837174 10.8830188
   1966    .15728   -104.3336 90.0597363 14.2738658
   1967    .15736  -105.60558 87.9538447 17.6517305
   1968    .15744   -106.7815 85.7679578 21.0135407
   1969    .15752   -107.8603 83.5040638 24.3562387
   1970     .1576  -108.84101 81.1642216 27.6767845
   1971    .15768  -109.72272 78.7505595 30.9721578
   1972    .15776  -110.50463 76.2652727 34.2393615
   1973    .15784  -111.18605 73.7106216 37.4754241
   1974    .15792  -111.76633 71.0889296 40.6774022
   1975      .158  -112.24496 68.4025812 43.8423837
   1976    .15808  -112.62151 65.6540198 46.9674899
   1977    .15816  -112.89562 62.8457452 50.0498786
   1978    .15824  -113.06706 59.9803114 53.0867462
   1979    .15832  -113.13566 57.0603248 56.0753306
   1980     .1584  -113.10135 54.0884409 59.0129138
   1981    .15848  -112.96419  51.067363 61.8968239
   1982    .15856  -112.72428 47.9998385  64.724438
   1983    .15864  -112.38184 44.8886575 67.4931844
   1984    .15872  -111.93719 41.7366497 70.2005447
   1985     .1588  -111.39074 38.5466818 72.8440567
   1986    .15888  -110.74297 35.3216551  75.421316
   1987    .15896  -109.99448  32.064503 77.9299786
   1988    .15904  -109.14595 28.7781877 80.3677628
   1989    .15912  -108.19815 25.4656983 82.7324514
   1990     .1592  -107.15194 22.1300474 85.0218937
   1991    .15928  -106.00828  18.774269 87.2340074
   1992    .15936   -104.7682 15.4014151 89.3667806
   1993    .15944  -103.43283 12.0145535 91.4182734
   1994    .15952  -102.00338 8.61676439 93.3866201
   1995     .1596  -100.48117 5.21113825 95.2700304
   1996    .15968  -98.867564  1.8007725 97.0667912
   1997    .15976  -97.164037 -1.6112311 98.7752685
   1998    .15984  -95.372139 -5.0217692 100.393908
   1999    .15992  -93.493498   -8.42774 101.921238
  % % % % % %   Final time step,  PLTFIL  dumps plot data to ".PL4" disk file.
  Done dumping plot points to C-like disk file.
   2000       .16  -91.529824 -11.826046  103.35587

Extrema of output variables follow.   Order and column positioning are the same as for the preceding time-step loop output.
Variable maxima :  113.137085 113.136449 113.136449
Times of maxima :         .05     .03888     .11112
Variable minima :  -113.13566 -113.13693 -113.13693
Times of minima :      .14168     .13056     .01944

Blank card terminating all plot cards.            |BLANK PLOT

Memory storage figures for the preceding, now-completed data case.  -------------------------------  Present   Program
A value of  "-9999"  indicates that no figure is available.         24-Nov-16  10:03:38              figure     limit  (name)
     Size List 1.   Number of electric network nodes.                                                   10      6000  (LBUS)
     Size List 2.   Number of electric network branches.                                                 9     10000  (LBRNCH)
     Size List 3.   Number of data values in R, L, C tables.                                             9    192000  (LDATA)
     Size List 4.   Number of electric network sources.                                                  3       900  (LEXCT)
     Size List 5.   Storage for [Y] and triangularized [Y].   No. times =    4     Factors =    15      30    420000  (LYMAT)
     Size List 6.   Number of entries in switch table.                  No. flops = 12                   3      1200  (LSWTCH)
     Size List 7.   Number of distinct ALPHANUMERIC data names plus program SPY variables.              17     15000  (LSIZE7)
     Size List 8.   History points of distributed lines.                                                 0    120000  (LPAST)
     Size List 9.   Number of nonlinear elements.                                                        0      2250  (LNONL)
     Size List 10.  Points of nonlinear characteristics.                                                 0      3800  (LCHAR)
     Size List 11.  Number of Type-59 S.M. outputs.                                                      0       720  (LSMOUT)
     Size List 12.  Total number of EMTP output variables.                                               3      2000  (LSIZ12)
     Size List 13.  Working space for batch/SPY plotting.                                            -9999     72800  (LSIZ13)
     Size List 14.  S.M./U.M. connections to TACS.                                                   -9999       510  (LBSTAC)
     Size List 15.  Character storage in bytes for MODELS.                                           -9999     90000  (LCTACS)
     Size List 16.  Total number of Type-59 S.M. masses.                                                 0       800  (LIMASS)
     Size List 17.  Number of Type-59 Synchronous machines.                                              0        90  (LSYN)
     Size List 18.  Branch and switch power/energy outputs.                                              0       254  (MAXPE)
     Size List 19.  Total floating-point TACS table space.                                          113562    120000  (LTACST)
       Tacs table number       1         2         3         4         5         6         7         8
       Present figure          1         1         1        14         0         0         0       653
       Program limit        1426      6417      7130       652      2139     17825     24955      4278
     Size List 20.  Non-copied recursive convolution data.                                               0    100000  (LFSEM)
     Size List 21.  Total modal/phase [T] matrix storage.                                                0      3000  (LFD)
     Size List 22.  Total recursive convolution history.                                                 0     15000  (LHIST)
     Size List 23.  Giant vectors for renumbering, phasors.                                             15    192000  (LSIZ23)
     Size List 24.  Peak phases of compensation for data.                                                0       120  (LCOMP)
     Size List 25.  Total table space for all U.M usage.                                             -9999     45000  (LSPCUM)
     Size List 26.  Square of max number of coupled phases.                                              0    260000  (LSIZ26)
     Size List 28.  MODELS.  Total work space is divided into INTEGER and REAL.  1st, REAL:          -9999    210000  (LRTACS)
                             Second  and last,  statistics for INTEGER work space.                       0         0  (LITACS)
     Size List 29.  RAM disk used by "TAPSAV" table saving (limit is "LABCOM" size LTLABL).          -9999       600  (LSIZ29)
     Size List 30.  Taku Noda frequency-dependent circuits.                                              0        19  (LSIZ30)
Timing figures characterizing central processor (CP) solution speed.  ----------------------------   CP sec  Wait sec  Real sec
     Data input time (through blank card ending branches) ....                                       0.000     0.000     0.000
     Node renumbering and phasor solution  ....                                                      0.016     0.000     0.016
     After phasor solution, but before time-step loop  ....                                          0.000     0.000     0.000
     Integration of equations (time-step loop)  ....                                                 0.016     0.000     0.016
     Plotting or STATISTICS termination overlays ....                                                0.000     0.000     0.000
                                                                                                    ---------------------------
                                                                                          Totals      0.031     0.000     0.031

