   ---   47   cards of disk file read into card cache cells  1   onward.
 <===> Done with  "/"-card sorting by data class.    Remember that the source file appears different from interpreted input data.
Alternative Transients Program (ATP),  GNU Linux or DOS.  All rights reserved by Can/Am user group of Portland, Oregon, USA.
 Date (dd-mth-yy) and time of day (hh.mm.ss) = 24-Nov-16  09:59:13   Name of disk plot file is  c:\atp\atpdraw\atp\cir1.pl4
Consult the 860-page ATP Rule Book of the Can/Am EMTP User Group in Portland,  Oregon, USA.  Source code date is 31 July 2006.
Total size of LABCOM tables = 10913313 INTEGER words.  31 VARDIM  List Sizes follow:  6002  10K  192K  900  420K  1200  15K
  120K  2250  3800  720  2K  72800  510  90K  800  90  254  120K  100K  3K  15K  192K  120  45K  260K  600  210K  600  19  200
--------------------------------------------------+--------------------------------------------------------------------------------
Descriptive interpretation of input data cards.   |  Input data card images are shown below, all 80 columns, character by character
                                                  0         1         2         3         4         5         6         7         8
                                                  012345678901234567890123456789012345678901234567890123456789012345678901234567890
--------------------------------------------------+--------------------------------------------------------------------------------
Comment card.   NUMDCD = 1.                       |C data:C:\ATP\ATPDRAW\ATP\CIR1.ATP
Marker card preceding new EMTP data case.         |BEGIN NEW DATA CASE
Comment card.   NUMDCD = 3.                       |C --------------------------------------------------------
Comment card.   NUMDCD = 4.                       |C Generated by ATPDRAW  noviembre, jueves 24, 2016
Comment card.   NUMDCD = 5.                       |C A Bonneville Power Administration program
Comment card.   NUMDCD = 6.                       |C by H. K. Høidalen at SEfAS/NTNU - NORWAY 1994-2015
Comment card.   NUMDCD = 7.                       |C --------------------------------------------------------
Comment card.   NUMDCD = 8.                       |C  dT  >< Tmax >< Xopt >< Copt ><Epsiln>
Misc. data.     8.000E-05   4.000E+00   0.000E+00 |   8.E-5      4.
Misc. data.      1    1  1  1  1  0  0  1  0  0   |       1       1       1       1       1       0       0       1       0
Electric network, too.  But TACS data first ...   |TACS HYBRID
TACS source.    1.000E+00   0.000E+00   0.000E+00 |11XX0002          1.                                                1.      1.05
TACS source.    1.000E+00   0.000E+00   0.000E+00 |11XX0003          1.                                                1.      1.05
TACS source.    1.000E+00   0.000E+00   0.000E+00 |11XX0004          1.                                                1.      1.05
Comment card.   NUMDCD = 15.                      |C        1         2         3         4         5         6         7         8
Comment card.   NUMDCD = 16.                      |C 345678901234567890123456789012345678901234567890123456789012345678901234567890
Blank card terminating all TACS data cards.       |BLANK TACS
Comment card.   NUMDCD = 18.                      |C < n1 >< n2 ><ref1><ref2>< R  >< L  >< C  >
Comment card.   NUMDCD = 19.                      |C < n1 >< n2 ><ref1><ref2>< R  >< A  >< B  ><Leng><><>0
Series R-L-C.   2.000E+01  0.000E+00  0.000E+00   |  F1A   F2A                  20.                                               0
Series R-L-C.   2.000E+01  0.000E+00  0.000E+00   |  F1B   F2B                  20.                                               0
Series R-L-C.   2.000E+01  0.000E+00  0.000E+00   |  F1C   F2C                  20.                                               0
Series R-L-C.   2.000E+01  0.000E+00  0.000E+00   |  F2A   X0001A               20.                                               0
Series R-L-C.   2.000E+01  0.000E+00  0.000E+00   |  F2B   X0001B               20.                                               0
Series R-L-C.   2.000E+01  0.000E+00  0.000E+00   |  F2C   X0001C               20.                                               0
Series R-L-C.   2.000E+01  0.000E+00  0.000E+00   |  X0001A                     20.                                               0
Series R-L-C.   2.000E+01  0.000E+00  0.000E+00   |  X0001B                     20.                                               0
Series R-L-C.   2.000E+01  0.000E+00  0.000E+00   |  X0001C                     20.                                               0
Blank card ending branches.  IBR, NTOT = 9  10    |BLANK BRANCH
Comment card.   NUMDCD = 30.                      |C < n 1>< n 2>< Tclose ><Top/Tde ><   Ie   ><Vf/CLOP ><  type  >
Switch.  TACS control = "XX0002"                  |13F2A   X0001A                                        CLOSED          XX0002   0
Switch.  TACS control = "XX0003"                  |13F2B   X0001B                                        CLOSED          XX0003   0
Switch.  TACS control = "XX0004"                  |13F2C   X0001C                                        CLOSED          XX0004   0
Blank card ending switches.   KSWTCH = 3.         |BLANK SWITCH
Comment card.   NUMDCD = 35.                      |C < n 1><>< Ampl.  >< Freq.  ><Phase/T0><   A1   ><   T1   >< TSTART >< TSTOP  >
Source.   1.70E+02  6.00E+01  0.00E+00 -1.00E+00  |14F1A     169.705627       60.                                     -1.      100.
Source.   1.70E+02  6.00E+01 -1.20E+02 -1.00E+00  |14F1B     169.705627       60.     -120.                           -1.      100.
Source.   1.70E+02  6.00E+01 -2.40E+02 -1.00E+00  |14F1C     169.705627       60.     -240.                           -1.      100.
Blank card ends electric sources.  KCONST = 3     |BLANK SOURCE

List of input elements that are connected to each node.   Only the physical connections of multi-phase lines are shown (capacitive
and inductive coupling are ignored).   Repeated entries indicate parallel connections.   Switches are included,  although sources
(including rotating machinery) are omitted -- except that U.M. usage produces extra,  internally-defined nodes  "UMXXXX".
--------------+------------------------------
From bus name |  Names of all adjacent busses.
--------------+------------------------------
       F1A    |F2A   *
       F2A    |F1A   *X0001A*X0001A*
       F1B    |F2B   *
       F2B    |F1B   *X0001B*X0001B*
       F1C    |F2C   *
       F2C    |F1C   *X0001C*X0001C*
       X0001A |TERRA *F2A   *F2A   *
       X0001B |TERRA *F2B   *F2B   *
       X0001C |TERRA *F2C   *F2C   *
       TERRA  |X0001A*X0001B*X0001C*
--------------+------------------------------

Sinusoidal steady-state phasor solution, branch by branch.   All flows are away from a bus,  and the real part,  magnitude,  or  "P"
is printed above the imaginary part,  the angle,  or  "Q".   The first solution frequency  =  6.00000000E+01  Hertz.
  Bus K                        Phasor  node  voltage              Phasor  branch  current               Power flow       Power loss
             Bus M         Rectangular            Polar          Rectangular            Polar            P  and  Q        P  and  Q

 F1A                       169.705627       169.705627          4.242640675      4.242640675      359.99999794329  179.99999897164
                                  0.0              0.0                  0.0              0.0                  0.0              0.0

            F2A            84.8528135       84.8528135         -4.242640675      4.242640675      -179.9999989716
                                  0.0              0.0                  0.0     -180.0000000                  0.0

 F1B                      -84.8528135       169.705627        -2.1213203375      4.242640675      359.99999794329  179.99999897164
                      -146.9693841472     -120.0000000      -3.674234603679     -120.0000000      .5245803791E-14        0.0000000

            F2B          -42.42640675       84.8528135         2.1213203375      4.242640675      -179.9999989716
                      -73.48469207358     -120.0000000      3.6742346036792       60.0000000       -.60368377E-15

 F1C                      -84.8528135       169.705627        -2.1213203375      4.242640675      359.99999794329  179.99999897164
                      146.96938414717      120.0000000      3.6742346036792      120.0000000      .2775557562E-15        0.0000000

            F2C          -42.42640675       84.8528135         2.1213203375      4.242640675      -179.9999989716
                      73.484692073583      120.0000000      -3.674234603679      -60.0000000      -.215105711E-14

 F2A                       84.8528135       84.8528135                  0.0              0.0                  0.0              0.0
                                  0.0              0.0                  0.0              0.0                  0.0              0.0

            X0001A         84.8528135       84.8528135                  0.0              0.0                  0.0
                                  0.0              0.0                  0.0              0.0                  0.0

 F2B                     -42.42640675       84.8528135                  0.0              0.0                  0.0              0.0
                      -73.48469207358     -120.0000000                  0.0              0.0                  0.0              0.0

            X0001B       -42.42640675       84.8528135                  0.0              0.0                  0.0
                      -73.48469207358     -120.0000000                  0.0              0.0                  0.0

 F2C                     -42.42640675       84.8528135                  0.0              0.0                  0.0              0.0
                      73.484692073583      120.0000000                  0.0              0.0                  0.0              0.0

            X0001C       -42.42640675       84.8528135                  0.0              0.0                  0.0
                      73.484692073583      120.0000000                  0.0              0.0                  0.0

 X0001A                    84.8528135       84.8528135          4.242640675      4.242640675      179.99999897164  179.99999897164
                                  0.0              0.0                  0.0              0.0                  0.0              0.0

            TERRA                 0.0              0.0         -4.242640675      4.242640675                  0.0
                                  0.0              0.0                  0.0     -180.0000000                  0.0

 X0001B                  -42.42640675       84.8528135        -2.1213203375      4.242640675      179.99999897164  179.99999897164
                      -73.48469207358     -120.0000000      -3.674234603679     -120.0000000      -.376781939E-14        0.0000000

            TERRA                 0.0              0.0         2.1213203375      4.242640675                  0.0
                                  0.0              0.0      3.6742346036792       60.0000000                  0.0

 X0001C                  -42.42640675       84.8528135        -2.1213203375      4.242640675      179.99999897164  179.99999897164
                      73.484692073583      120.0000000      3.6742346036792      120.0000000       .652256027E-14        0.0000000

            TERRA                 0.0              0.0         2.1213203375      4.242640675                  0.0
                                  0.0              0.0      -3.674234603679      -60.0000000                  0.0
     Total network loss  P-loss  by summing injections =   1.079999993830E+03

Output for steady-state phasor switch currents.
      Node-K    Node-M            I-real            I-imag            I-magn          Degrees        Power            Reactive
      F2A       X0001A        4.24264068E+00    0.00000000E+00    4.24264068E+00       0.0000    1.79999999E+02    0.00000000E+00
      F2B       X0001B       -2.12132034E+00   -3.67423460E+00    4.24264068E+00    -120.0000    1.79999999E+02    6.03683770E-16
      F2C       X0001C       -2.12132034E+00    3.67423460E+00    4.24264068E+00     120.0000    1.79999999E+02    1.15740750E-14

Solution at nodes with known voltage.   Nodes that are shorted together by switches are shown as a group of names, with the printed
result applying to the composite group.   The entry "MVA" is  SQRT( P**2 + Q**2 )  in units of power,  while  "P.F."  is the
associated power factor.
              Node                Source  node  voltage             Injected  source  current              Injected  source  power
              name         Rectangular            Polar          Rectangular            Polar            P  and  Q    MVA and P.F.

              F1A          169.705627       169.705627          4.242640675      4.242640675      359.99999794329  359.99999794329
                                  0.0              0.0                  0.0              0.0                  0.0        1.0000000

              F1B         -84.8528135       169.705627        -2.1213203375      4.242640675      359.99999794329  359.99999794329
                      -146.9693841472     -120.0000000      -3.674234603679     -120.0000000      .5245803791E-14        1.0000000

              F1C         -84.8528135       169.705627        -2.1213203375      4.242640675      359.99999794329  359.99999794329
                      146.96938414717      120.0000000      3.6742346036792      120.0000000      .1910971381E-13        1.0000000


Zero-frequency (dc) steady-state solution for TACS follows.
   (Name)      TACS value   (Name)    TACS value     (Name)    TACS value     (Name)    TACS value     (Name)    TACS value
           0.00000000E+00   TIMEX   0.00000000E+00   ISTEP   0.00000000E+00   DELTAT  8.00000000E-05   FREQHZ  6.00000000E+01
   OMEGAR  3.76991118E+02   ZERO    0.00000000E+00   PLUS1   1.00000000E+00   MINUS1 -1.00000000E+00   UNITY   1.00000000E+00
   INFNTY  1.00000000E+19   PI      3.14159265E+00   XX0002  0.00000000E+00   XX0003  0.00000000E+00   XX0004  0.00000000E+00
Card of names for time-step loop output.          |  F2A   F2B   F2C
Blank card ending requests for output variables.  |BLANK OUTPUT

Column headings for the  3   EMTP output variables follow.  These are divided among the 5 possible classes as follows ....
  First  3     output variables are electric-network voltage differences (upper voltage minus lower voltage);
   Step      Time      F2A        F2B        F2C
 
 ***      Phasor I(0) =  4.2426407E+00                     Switch  "F2A   "  to  "X0001A"  closed in the steady-state.
 ***      Phasor I(0) = -2.1213203E+00                     Switch  "F2B   "  to  "X0001B"  closed in the steady-state.
 ***      Phasor I(0) = -2.1213203E+00                     Switch  "F2C   "  to  "X0001C"  closed in the steady-state.
      0       0.0  84.8528135 -42.426407 -42.426407
      1     .8E-4  84.8142261 -40.191203 -44.623023
      2    .16E-3  112.931332 -50.559259 -62.372072
      3    .24E-3  112.674317 -47.484264 -65.190052
      4    .32E-3  112.314822 -44.366081 -67.948741
      5     .4E-3  111.853176 -41.207547  -70.64563
      6    .48E-3  111.289798 -38.011533 -73.278265
      7    .56E-3    110.6252 -34.780948 -75.844253
      8    .64E-3  109.859987 -31.518729 -78.341259
      9    .72E-3  108.994855 -28.227843 -80.767013
     10     .8E-3  108.030591 -24.911283 -83.119308
     11    .88E-3  106.968071 -21.572067 -85.396005
     12    .96E-3  105.808262  -18.21323 -87.595033
     13    .00104   104.55222 -14.837828 -89.714392
     14    .00112  103.201085 -11.448931 -91.752155
     15     .0012  101.756088 -8.0496207 -93.706467
     16    .00128  100.218542 -4.6429894 -95.575553
     17    .00136  98.5898464 -1.2321352 -97.357711
     18    .00144  96.8714816 2.17983966 -99.051321
     19    .00152  95.0650109 5.58983191 -100.65484
     20     .0016  93.1720772 8.99474012 -102.16682
     21    .00168  91.1944023 12.3914675 -103.58587
     22    .00176  89.1337848 15.7769247 -104.91071
     23    .00184  86.9920988 19.1480325 -106.14013
     24    .00192  84.7712924 22.5017249 -107.27302
     25      .002  82.4733853 25.8349517 -108.30834
     26    .00208  80.1004675 29.1446813 -109.24515
     27    .00216  77.6546973 32.4279034  -110.0826
     28    .00224   75.138299 35.6816318 -110.81993
     29    .00232  72.5535614 38.9029073 -111.45647
     30     .0024  69.9028354 42.0888001 -111.99164
     31    .00248  67.1885317 45.2364125 -112.42494
     32    .00256  64.4131192 48.3428818   -112.756
     33    .00264   61.579122 51.4053826  -112.9845
     34    .00272  58.6891178 54.4211294 -113.11025
     35     .0028   55.745735 57.3873795 -113.13311
     36    .00288  52.7516506  60.301435 -113.05309
     37    .00296   49.709588 63.1606455 -112.87023
     38    .00304  46.6223138 65.9624105 -112.58472
     39    .00312  43.4926359 68.7041818 -112.19682
     40     .0032  40.3234009 71.3834657 -111.70687
     41    .00328  37.1174912 73.9978254 -111.11532
     42    .00336  33.8778226  76.544883 -110.42271
     43    .00344  30.6073417  79.022322 -109.62966
     44    .00352   27.309023  81.427889 -108.73691
     45     .0036  23.9858663 83.7593963 -107.74526
     46    .00368  20.6408942 86.0147233 -106.65562
     47    .00376  17.2771489 88.1918187 -105.46897
     48    .00384  13.8976898 90.2887024 -104.18639
     49    .00392  10.5055906 92.3034673 -102.80906
     50      .004  7.10393632 94.2342809 -101.33822
     51    .00408  3.69582097 96.0793872 -99.775208
     52    .00416  .284344208 97.8371079 -98.121452
     53    .00424  -3.1273912 99.5058444 -96.378453
     54    .00432  -6.5362821 101.084079 -94.547797
     55     .0044  -9.9392283 102.570376 -92.631148
     56    .00448  -13.333135 103.963384  -90.63025
     57    .00456  -16.714914 105.261836 -88.546922
     58    .00464  -20.081491 106.464551  -86.38306
     59    .00472  -23.429804 107.570435 -84.140631
     60     .0048  -26.756807 108.578482 -81.821675
     61    .00488  -30.059474 109.487775 -79.428301
     62    .00496  -33.334802 110.297488 -76.962686
     63    .00504  -36.579812 111.006884 -74.427072
     64    .00512  -39.791551 111.615317 -71.823766
     65     .0052    -42.9671 112.122235 -69.155135
     66    .00528  -46.103569 112.527176 -66.423607
     67    .00536  -49.198107 112.829772 -63.631665
     68    .00544  -52.247898 113.029747  -60.78185
     69    .00552  -55.250169 113.126921 -57.876752
     70     .0056  -58.202189 113.121204 -54.919015
     71    .00568  -61.101274 113.012602 -51.911328
     72    .00576  -63.944786 112.801213 -48.856428
     73    .00584  -66.730139  112.48723 -45.757091
     74    .00592  -69.454801 112.070939 -42.616138
     75      .006  -72.116292 111.552717 -39.436425
     76    .00608  -74.712192 110.933037 -36.220844
     77    .00616  -77.240141 110.212461  -32.97232
     78    .00624  -79.697839 109.391646 -29.693807
     79    .00632  -82.083051 108.471337 -26.388287
     80     .0064  -84.393607 107.452373 -23.058766
     81    .00648  -86.627405 106.335678 -19.708273
     82    .00656  -88.782415 105.122271 -16.339855
     83    .00664  -90.856676 103.813253 -12.956576
     84    .00672  -92.848302 102.409815  -9.561513
     85     .0068  -94.755481 100.913234 -6.1577534
     86    .00688  -96.576478 99.3248714 -2.7483932
     87    .00696  -98.309638 97.6461713 .663466714
     88    .00704  -99.953384 95.8786607 4.07472318
     89    .00712  -101.50622 94.0239471 7.48227362
     90     .0072  -102.96674 92.0837174 10.8830188
     91    .00728   -104.3336 90.0597363 14.2738658
     92    .00736  -105.60558 87.9538447 17.6517305
     93    .00744   -106.7815 85.7679578 21.0135407
     94    .00752   -107.8603 83.5040638 24.3562387
     95     .0076  -108.84101 81.1642216 27.6767845
     96    .00768  -109.72272 78.7505595 30.9721578
     97    .00776  -110.50463 76.2652727 34.2393615
     98    .00784  -111.18605 73.7106216 37.4754241
     99    .00792  -111.76633 71.0889296 40.6774022
    100      .008  -112.24496 68.4025812 43.8423837
    101    .00808  -112.62151 65.6540198 46.9674899
    102    .00816  -112.89562 62.8457452 50.0498786
    103    .00824  -113.06706 59.9803114 53.0867462
    104    .00832  -113.13566 57.0603248 56.0753306
    105     .0084  -113.10135 54.0884409 59.0129138
    106    .00848  -112.96419  51.067363 61.8968239
    107    .00856  -112.72428 47.9998385  64.724438
    108    .00864  -112.38184 44.8886575 67.4931844
    109    .00872  -111.93719 41.7366497 70.2005447
    110     .0088  -111.39074 38.5466818 72.8440567
    111    .00888  -110.74297 35.3216551  75.421316
    112    .00896  -109.99448  32.064503 77.9299786
    113    .00904  -109.14595 28.7781877 80.3677628
    114    .00912  -108.19815 25.4656983 82.7324514
    115     .0092  -107.15194 22.1300474 85.0218937
    116    .00928  -106.00828  18.774269 87.2340074
    117    .00936   -104.7682 15.4014151 89.3667806
    118    .00944  -103.43283 12.0145535 91.4182734
    119    .00952  -102.00338 8.61676439 93.3866201
    120     .0096  -100.48117 5.21113825 95.2700304
    121    .00968  -98.867564  1.8007725 97.0667912
    122    .00976  -97.164037 -1.6112311 98.7752685
    123    .00984  -95.372139 -5.0217692 100.393908
    124    .00992  -93.493498   -8.42774 101.921238
    125       .01  -91.529824 -11.826046  103.35587
    126    .01008  -89.482902 -15.213595 104.696498
    127    .01016  -87.354594 -18.587308 105.941902
    128    .01024  -85.146836 -21.944115 107.090952
    129    .01032  -82.861636 -25.280964   108.1426
    130     .0104  -80.501072 -28.594819 109.095892
    131    .01048  -78.067291 -31.882668 109.949959
    132    .01056  -75.562507 -35.141518 110.704025
    133    .01064  -72.988998 -38.368406 111.357404
    134    .01072  -70.349104 -41.560398 111.909502
    135     .0108  -67.645227 -44.714591 112.359817
    136    .01088  -64.879825 -47.828114  112.70794
    137    .01096  -62.055414 -50.898138 112.953552
    138    .01104  -59.174564 -53.921869 113.096432
    139    .01112  -56.239893 -56.896557 113.136449
    140     .0112  -53.254071 -59.819497 113.073567
    141    .01128  -50.219813  -62.68803 112.907843
    142    .01136   -47.13988 -65.499548 112.639428
    143    .01144  -44.017073 -68.251493 112.268566
    144    .01152  -40.854232 -70.941362 111.795594
    145     .0116  -37.654233 -73.566709 111.220942
    146    .01168  -34.419987 -76.125146 110.545133
    147    .01176  -31.154436 -78.614347 109.768782
    148    .01184  -27.860549 -81.032046 108.892595
    149    .01192  -24.541323 -83.376046 107.917368
    150      .012  -21.199776 -85.644214 106.843989
    151    .01208  -17.838947 -87.834487 105.673434
    152    .01216  -14.461894 -89.944874 104.406768
    153    .01224  -11.071687 -91.973455 103.045142
    154    .01232   -7.671411 -93.918384 101.589795
    155     .0124  -4.2641574 -95.777894 100.042051
    156    .01248  -.85302544 -97.550292 98.4033171
    157    .01256  2.55888235 -99.233967 96.6750842
    158    .01264   5.9684628 -100.82739 94.8589239
    159    .01272  9.37261484  -102.3291 92.9564881
    160     .0128  12.7682424 -103.73775 90.9695071
    161    .01288   16.152257 -105.05205  88.899788
    162    .01296  19.5215809 -106.27079 86.7492134
    163    .01304  22.8731497 -107.39289 84.5197392
    164    .01312  26.2039151 -108.41731 82.2133931
    165     .0132  29.5108476 -109.34312 79.8322728
    166    .01328  32.7909396 -110.16948  77.378544
    167    .01336  36.0412078 -110.89565 74.8544383
    168    .01344   39.258696 -111.52095 72.2622514
    169    .01352  42.4404778 -112.04482  69.604341
    170     .0136  45.5836595 -112.46678 66.8831246
    171    .01368  48.6853822 -112.78646  64.101077
    172    .01376  51.7428249 -113.00355 61.2607285
    173    .01384  54.7532068 -113.11787 58.3646626
    174    .01392  57.7137899  -113.1293 55.4155133
    175      .014  60.6218815 -113.03784 52.4159628
    176    .01408  63.4748366 -112.84358 49.3687392
    177    .01416  66.2700605 -112.54667 46.2766141
    178    .01424  69.0050109 -112.14741 43.1423997
    179    .01432  71.6772003 -111.64615 39.9689468
    180     .0144  74.2841982 -111.04334 36.7591415
    181    .01448  76.8236337 -110.33954 33.5159033
    182    .01456   79.293197 -109.53538 30.2421819
    183    .01464  81.6906421  -108.6316 26.9409548
    184    .01472  84.0137883 -107.62901 23.6152246
    185     .0148  86.2605229 -106.52854  20.268016
    186    .01488  88.4288024 -105.33118 16.9023733
    187    .01496  90.5166546 -104.03801 13.5213578
    188    .01504  92.5221807 -102.65022 10.1280443
    189    .01512  94.4435566 -101.16908 6.72551925
    190     .0152  96.2790347 -99.595912 3.31687725
    191    .01528  98.0269458 -97.932164 -.09478149
    192    .01536     99.6857 -96.179346  -3.506354
    193    .01544  101.253789 -94.339051 -6.9147375
    194    .01552  102.729786 -92.412954 -10.316832
    195     .0156  104.112348 -90.402805 -13.709543
    196    .01568   105.40022 -88.310434 -17.089785
    197    .01576  106.592228 -86.137744 -20.454484
    198    .01584  107.687289  -83.88671 -23.800579
    199    .01592  108.684407  -81.55938 -27.125027
    200      .016  109.582675 -79.157871 -30.424805
    201    .01608  110.381276 -76.684366  -33.69691
    202    .01616  111.079484 -74.141116 -36.938368
    203    .01624  111.676664 -71.530433  -40.14623
    204    .01632  112.172272 -68.854693 -43.317579
    205     .0164  112.565857 -66.116328 -46.449529
    206    .01648  112.857063  -63.31783 -49.539233
    207    .01656  113.045624 -60.461743 -52.583881
    208    .01664  113.131368 -57.550665 -55.580702
    209    .01672  113.114217 -54.587245 -58.526972
    210     .0168  112.994188 -51.574176 -61.420011
    211    .01688  112.771388   -48.5142 -64.257188
    212    .01696  112.446022   -45.4101 -67.035922
    213    .01704  112.018384 -42.264698 -69.753686
    214    .01712  111.488865 -39.080856 -72.408008
    215     .0172  110.857944  -35.86147 -74.996474
    216    .01728  110.126197 -32.609467 -77.516729
    217    .01736  109.294288 -29.327806 -79.966482
    218    .01744  108.362975  -26.01947 -82.343505
    219    .01752  107.333104 -22.687469 -84.645635
    220     .0176  106.205612 -19.334834 -86.870778
    221    .01768  104.981525 -15.964613 -89.016911
    222    .01776  103.661955 -12.579873 -91.082083
    223    .01784  102.248104 -9.1836904 -93.064413
    224    .01792  100.741256 -5.7791555 -94.962101
    225      .018  99.1427831 -2.3693643 -96.773419
    226    .01808  97.4541382 1.04258177  -98.49672
    227    .01816  95.6768575 4.45357963 -100.13044
    228    .01824  93.8125574  7.8605269 -101.67308
    229    .01832  91.8629335 11.2603249 -103.12326
    230     .0184   89.829759 14.6498815 -104.47964
    231    .01848   87.714883 18.0261138   -105.741
    232    .01856  85.5202292 21.3859511 -106.90618
    233    .01864  83.2477935 24.7263376 -107.97413
    234    .01872  80.8996428 28.0442352 -108.94388
    235     .0188  78.4779128 31.3366261 -109.81454
    236    .01888   75.984806  34.600516 -110.58532
    237    .01896    73.42259 37.8329362 -111.25553
    238    .01904  70.7935952 41.0309468 -111.82454
    239    .01912  68.1002125 44.1916392 -112.29185
    240     .0192  65.3448918 47.3121387 -112.65703
    241    .01928  62.5301391 50.3896072 -112.91975
    242    .01936  59.6585143 53.4212456 -113.07976
    243    .01944  56.7326292 56.4042966 -113.13693
    244    .01952  53.7551451 59.3360472 -113.09119
    245     .0196  50.7287699 62.2138308  -112.9426
    246    .01968  47.6562562 65.0350301 -112.69129
    247    .01976  44.5403984 67.7970791 -112.33748
    248    .01984  41.3840306 70.4974658  -111.8815
    249    .01992  38.1900234  73.133734 -111.32376
    250       .02  34.9612819 75.7034861 -110.66477
    251    .02008  31.7007425 78.2043848 -109.90513
    252    .02016   28.411371 80.6341555 -109.04553
    253    .02024  25.0961589 82.9905884 -108.08675
    254    .02032  21.7581215 85.2715402 -107.02966
    255     .0204  18.4002947 87.4749363 -105.87523
    256    .02048  15.0257327 89.5987728 -104.62451
    257    .02056  11.6375045  91.641118 -103.27862
    258    .02064   8.2386919 93.6001143 -101.83881
    259    .02072  4.83238607   95.47398 -100.30637
    260     .0208  1.42168512 97.2610108 -98.682696
    261    .02088  -1.9903089 98.9595814 -96.969273
    262    .02096  -5.4004927 100.568147 -95.167654
    263    .02104  -8.8057646 102.085244  -93.27948
    264    .02112  -12.203028 103.509494 -91.306466
    265     .0212  -15.589192   104.8396 -89.250408
    266    .02128  -18.961177 106.074353 -87.113175
    267    .02136  -22.315918  107.21263 -84.896712
    268    .02144  -25.650361 108.253395 -82.603034
    269    .02152  -28.961475 109.195703 -80.234228
    270     .0216  -32.246248 110.038696 -77.792447
    271    .02168  -35.501693 110.781606 -75.279913
    272    .02176  -38.724849  111.42376 -72.698911
    273    .02184  -41.912784 111.964572 -70.051788
    274    .02192  -45.062598 112.403551 -67.340953
    275      .022  -48.171428 112.740297 -64.568869
    276    .02208  -51.236445 112.974504  -61.73806
    277    .02216  -54.254861  113.10596 -58.851098
    278    .02224  -57.223932 113.134544 -55.910611
    279    .02232  -60.140958  113.06023 -52.919273
    280     .0224  -63.003284 112.883087 -49.879803
    281    .02248  -65.808308 112.603275 -46.794968
    282    .02256  -68.553478 112.221049 -43.667571
    283    .02264  -71.236298 111.736756 -40.500458
    284    .02272  -73.854327 111.150837  -37.29651
    285     .0228  -76.405185 110.463825  -34.05864
    286    .02288  -78.886551 109.676344 -30.789793
    287    .02296  -81.296169 108.789112 -27.492942
    288    .02304  -83.631847 107.802934 -24.171086
    289    .02312  -85.891461 106.718708 -20.827247
    290     .0232  -88.072955  105.53742 -17.464464
    291    .02328  -90.174346 104.260144 -14.085798
    292    .02336  -92.193722 102.888041  -10.69432
    293    .02344  -94.129246 101.422361 -7.2931152
    294    .02352  -95.979159 99.8644362 -3.8852775
    295     .0236  -97.741777 98.2156829 -.47390613
    296    .02368  -99.415497 96.4776011  2.9378963
    297    .02376   -100.9988 94.6517717 6.34702666
    298    .02384  -102.49024 92.7398551 9.75038432
    299    .02392  -103.88846 90.7435903 13.1448739
    300      .024   -105.1922  88.664793  16.527408
    301    .02408  -106.40026 86.5053539 19.8949102
    302    .02416  -107.51155 84.2672369 23.2443177
    303    .02424  -108.52506 81.9524777 26.5725841
    304    .02432  -109.43986 79.5631816 29.8766825
    305     .0244  -110.25513 77.1015217 33.1536076
    306    .02448  -110.97012 74.5697369  36.400379
    307    .02456  -111.58417 71.9701299 39.6140438
    308    .02464  -112.09674 69.3050651  42.791679
    309    .02472  -112.50736 66.5769664 45.9303947
    310     .0248  -112.81565 63.7883149  49.027336
    311    .02488  -113.02133 60.9416472 52.0796863
    312    .02496  -113.12422 58.0395521 55.0846693
    313    .02504  -113.12422 55.0846693 58.0395521
    314    .02512  -113.02133 52.0796863 60.9416472
    315     .0252  -112.81565  49.027336 63.7883149
    316    .02528  -112.50736 45.9303947 66.5769664
    317    .02536  -112.09674  42.791679 69.3050651
    318    .02544  -111.58417 39.6140438 71.9701299
    319    .02552  -110.97012  36.400379 74.5697369
    320     .0256  -110.25513 33.1536076 77.1015217
    321    .02568  -109.43986 29.8766825 79.5631816
    322    .02576  -108.52506 26.5725841 81.9524777
    323    .02584  -107.51155 23.2443177 84.2672369
    324    .02592  -106.40026 19.8949102 86.5053539
    325      .026   -105.1922  16.527408  88.664793
    326    .02608  -103.88846 13.1448739 90.7435903
    327    .02616  -102.49024 9.75038432 92.7398551
    328    .02624   -100.9988 6.34702666 94.6517717
    329    .02632  -99.415497  2.9378963 96.4776011
    330     .0264  -97.741777 -.47390613 98.2156829
    331    .02648  -95.979159 -3.8852775 99.8644362
    332    .02656  -94.129246 -7.2931152 101.422361
    333    .02664  -92.193722  -10.69432 102.888041
    334    .02672  -90.174346 -14.085798 104.260144
    335     .0268  -88.072955 -17.464464  105.53742
    336    .02688  -85.891461 -20.827247 106.718708
    337    .02696  -83.631847 -24.171086 107.802934
    338    .02704  -81.296169 -27.492942 108.789112
    339    .02712  -78.886551 -30.789793 109.676344
    340     .0272  -76.405185  -34.05864 110.463825
    341    .02728  -73.854327  -37.29651 111.150837
    342    .02736  -71.236298 -40.500458 111.736756
    343    .02744  -68.553478 -43.667571 112.221049
    344    .02752  -65.808308 -46.794968 112.603275
    345     .0276  -63.003284 -49.879803 112.883087
    346    .02768  -60.140958 -52.919273  113.06023
    347    .02776  -57.223932 -55.910611 113.134544
    348    .02784  -54.254861 -58.851098  113.10596
    349    .02792  -51.236445  -61.73806 112.974504
    350      .028  -48.171428 -64.568869 112.740297
    351    .02808  -45.062598 -67.340953 112.403551
    352    .02816  -41.912784 -70.051788 111.964572
    353    .02824  -38.724849 -72.698911  111.42376
    354    .02832  -35.501693 -75.279913 110.781606
    355     .0284  -32.246248 -77.792447 110.038696
    356    .02848  -28.961475 -80.234228 109.195703
    357    .02856  -25.650361 -82.603034 108.253395
    358    .02864  -22.315918 -84.896712  107.21263
    359    .02872  -18.961177 -87.113175 106.074353
    360     .0288  -15.589192 -89.250408   104.8396
    361    .02888  -12.203028 -91.306466 103.509494
    362    .02896  -8.8057646  -93.27948 102.085244
    363    .02904  -5.4004927 -95.167654 100.568147
    364    .02912  -1.9903089 -96.969273 98.9595814
    365     .0292  1.42168512 -98.682696 97.2610108
    366    .02928  4.83238607 -100.30637   95.47398
    367    .02936   8.2386919 -101.83881 93.6001143
    368    .02944  11.6375045 -103.27862  91.641118
    369    .02952  15.0257327 -104.62451 89.5987728
    370     .0296  18.4002947 -105.87523 87.4749363
    371    .02968  21.7581215 -107.02966 85.2715402
    372    .02976  25.0961589 -108.08675 82.9905884
    373    .02984   28.411371 -109.04553 80.6341555
    374    .02992  31.7007425 -109.90513 78.2043848
    375       .03  34.9612819 -110.66477 75.7034861
    376    .03008  38.1900234 -111.32376  73.133734
    377    .03016  41.3840306  -111.8815 70.4974658
    378    .03024  44.5403984 -112.33748 67.7970791
    379    .03032  47.6562562 -112.69129 65.0350301
    380     .0304  50.7287699  -112.9426 62.2138308
    381    .03048  53.7551451 -113.09119 59.3360472
    382    .03056  56.7326292 -113.13693 56.4042966
    383    .03064  59.6585143 -113.07976 53.4212456
    384    .03072  62.5301391 -112.91975 50.3896072
    385     .0308  65.3448918 -112.65703 47.3121387
    386    .03088  68.1002125 -112.29185 44.1916392
    387    .03096  70.7935952 -111.82454 41.0309468
    388    .03104    73.42259 -111.25553 37.8329362
    389    .03112   75.984806 -110.58532  34.600516
    390     .0312  78.4779128 -109.81454 31.3366261
    391    .03128  80.8996428 -108.94388 28.0442352
    392    .03136  83.2477935 -107.97413 24.7263376
    393    .03144  85.5202292 -106.90618 21.3859511
    394    .03152   87.714883   -105.741 18.0261138
    395     .0316   89.829759 -104.47964 14.6498815
    396    .03168  91.8629335 -103.12326 11.2603249
    397    .03176  93.8125574 -101.67308  7.8605269
    398    .03184  95.6768575 -100.13044 4.45357963
    399    .03192  97.4541382  -98.49672 1.04258177
    400      .032  99.1427831 -96.773419 -2.3693643
    401    .03208  100.741256 -94.962101 -5.7791555
    402    .03216  102.248104 -93.064413 -9.1836904
    403    .03224  103.661955 -91.082083 -12.579873
    404    .03232  104.981525 -89.016911 -15.964613
    405     .0324  106.205612 -86.870778 -19.334834
    406    .03248  107.333104 -84.645635 -22.687469
    407    .03256  108.362975 -82.343505  -26.01947
    408    .03264  109.294288 -79.966482 -29.327806
    409    .03272  110.126197 -77.516729 -32.609467
    410     .0328  110.857944 -74.996474  -35.86147
    411    .03288  111.488865 -72.408008 -39.080856
    412    .03296  112.018384 -69.753686 -42.264698
    413    .03304  112.446022 -67.035922   -45.4101
    414    .03312  112.771388 -64.257188   -48.5142
    415     .0332  112.994188 -61.420011 -51.574176
    416    .03328  113.114217 -58.526972 -54.587245
    417    .03336  113.131368 -55.580702 -57.550665
    418    .03344  113.045624 -52.583881 -60.461743
    419    .03352  112.857063 -49.539233  -63.31783
    420     .0336  112.565857 -46.449529 -66.116328
    421    .03368  112.172272 -43.317579 -68.854693
    422    .03376  111.676664  -40.14623 -71.530433
    423    .03384  111.079484 -36.938368 -74.141116
    424    .03392  110.381276  -33.69691 -76.684366
    425      .034  109.582675 -30.424805 -79.157871
    426    .03408  108.684407 -27.125027  -81.55938
    427    .03416  107.687289 -23.800579  -83.88671
    428    .03424  106.592228 -20.454484 -86.137744
    429    .03432   105.40022 -17.089785 -88.310434
    430     .0344  104.112348 -13.709543 -90.402805
    431    .03448  102.729786 -10.316832 -92.412954
    432    .03456  101.253789 -6.9147375 -94.339051
    433    .03464     99.6857  -3.506354 -96.179346
    434    .03472  98.0269458 -.09478149 -97.932164
    435     .0348  96.2790347 3.31687725 -99.595912
    436    .03488  94.4435566 6.72551925 -101.16908
    437    .03496  92.5221807 10.1280443 -102.65022
    438    .03504  90.5166546 13.5213578 -104.03801
    439    .03512  88.4288024 16.9023733 -105.33118
    440     .0352  86.2605229  20.268016 -106.52854
    441    .03528  84.0137883 23.6152246 -107.62901
    442    .03536  81.6906421 26.9409548  -108.6316
    443    .03544   79.293197 30.2421819 -109.53538
    444    .03552  76.8236337 33.5159033 -110.33954
    445     .0356  74.2841982 36.7591415 -111.04334
    446    .03568  71.6772003 39.9689468 -111.64615
    447    .03576  69.0050109 43.1423997 -112.14741
    448    .03584  66.2700605 46.2766141 -112.54667
    449    .03592  63.4748366 49.3687392 -112.84358
    450      .036  60.6218815 52.4159628 -113.03784
    451    .03608  57.7137899 55.4155133  -113.1293
    452    .03616  54.7532068 58.3646626 -113.11787
    453    .03624  51.7428249 61.2607285 -113.00355
    454    .03632  48.6853822  64.101077 -112.78646
    455     .0364  45.5836595 66.8831246 -112.46678
    456    .03648  42.4404778  69.604341 -112.04482
    457    .03656   39.258696 72.2622514 -111.52095
    458    .03664  36.0412078 74.8544383 -110.89565
    459    .03672  32.7909396  77.378544 -110.16948
    460     .0368  29.5108476 79.8322728 -109.34312
    461    .03688  26.2039151 82.2133931 -108.41731
    462    .03696  22.8731497 84.5197392 -107.39289
    463    .03704  19.5215809 86.7492134 -106.27079
    464    .03712   16.152257  88.899788 -105.05205
    465     .0372  12.7682424 90.9695071 -103.73775
    466    .03728  9.37261484 92.9564881  -102.3291
    467    .03736   5.9684628 94.8589239 -100.82739
    468    .03744  2.55888235 96.6750842 -99.233967
    469    .03752  -.85302544 98.4033171 -97.550292
    470     .0376  -4.2641574 100.042051 -95.777894
    471    .03768   -7.671411 101.589795 -93.918384
    472    .03776  -11.071687 103.045142 -91.973455
    473    .03784  -14.461894 104.406768 -89.944874
    474    .03792  -17.838947 105.673434 -87.834487
    475      .038  -21.199776 106.843989 -85.644214
    476    .03808  -24.541323 107.917368 -83.376046
    477    .03816  -27.860549 108.892595 -81.032046
    478    .03824  -31.154436 109.768782 -78.614347
    479    .03832  -34.419987 110.545133 -76.125146
    480     .0384  -37.654233 111.220942 -73.566709
    481    .03848  -40.854232 111.795594 -70.941362
    482    .03856  -44.017073 112.268566 -68.251493
    483    .03864   -47.13988 112.639428 -65.499548
    484    .03872  -50.219813 112.907843  -62.68803
    485     .0388  -53.254071 113.073567 -59.819497
    486    .03888  -56.239893 113.136449 -56.896557
    487    .03896  -59.174564 113.096432 -53.921869
    488    .03904  -62.055414 112.953552 -50.898138
    489    .03912  -64.879825  112.70794 -47.828114
    490     .0392  -67.645227 112.359817 -44.714591
    491    .03928  -70.349104 111.909502 -41.560398
    492    .03936  -72.988998 111.357404 -38.368406
    493    .03944  -75.562507 110.704025 -35.141518
    494    .03952  -78.067291 109.949959 -31.882668
    495     .0396  -80.501072 109.095892 -28.594819
    496    .03968  -82.861636   108.1426 -25.280964
    497    .03976  -85.146836 107.090952 -21.944115
    498    .03984  -87.354594 105.941902 -18.587308
    499    .03992  -89.482902 104.696498 -15.213595
    500       .04  -91.529824  103.35587 -11.826046
    501    .04008  -93.493498 101.921238   -8.42774
    502    .04016  -95.372139 100.393908 -5.0217692
    503    .04024  -97.164037 98.7752685 -1.6112311
    504    .04032  -98.867564 97.0667912  1.8007725
    505     .0404  -100.48117 95.2700304 5.21113825
    506    .04048  -102.00338 93.3866201 8.61676439
    507    .04056  -103.43283 91.4182734 12.0145535
    508    .04064   -104.7682 89.3667806 15.4014151
    509    .04072  -106.00828 87.2340074  18.774269
    510     .0408  -107.15194 85.0218937 22.1300474
    511    .04088  -108.19815 82.7324514 25.4656983
    512    .04096  -109.14595 80.3677628 28.7781877
    513    .04104  -109.99448 77.9299786  32.064503
    514    .04112  -110.74297  75.421316 35.3216551
    515     .0412  -111.39074 72.8440567 38.5466818
    516    .04128  -111.93719 70.2005447 41.7366497
    517    .04136  -112.38184 67.4931844 44.8886575
    518    .04144  -112.72428  64.724438 47.9998385
    519    .04152  -112.96419 61.8968239  51.067363
    520     .0416  -113.10135 59.0129138 54.0884409
    521    .04168  -113.13566 56.0753306 57.0603248
    522    .04176  -113.06706 53.0867462 59.9803114
    523    .04184  -112.89562 50.0498786 62.8457452
    524    .04192  -112.62151 46.9674899 65.6540198
    525      .042  -112.24496 43.8423837 68.4025812
    526    .04208  -111.76633 40.6774022 71.0889296
    527    .04216  -111.18605 37.4754241 73.7106216
    528    .04224  -110.50463 34.2393615 76.2652727
    529    .04232  -109.72272 30.9721578 78.7505595
    530     .0424  -108.84101 27.6767845 81.1642216
    531    .04248   -107.8603 24.3562387 83.5040638
    532    .04256   -106.7815 21.0135407 85.7679578
    533    .04264  -105.60558 17.6517305 87.9538447
    534    .04272   -104.3336 14.2738658 90.0597363
    535     .0428  -102.96674 10.8830188 92.0837174
    536    .04288  -101.50622 7.48227362 94.0239471
    537    .04296  -99.953384 4.07472318 95.8786607
    538    .04304  -98.309638 .663466714 97.6461713
    539    .04312  -96.576478 -2.7483932 99.3248714
    540     .0432  -94.755481 -6.1577534 100.913234
    541    .04328  -92.848302  -9.561513 102.409815
    542    .04336  -90.856676 -12.956576 103.813253
    543    .04344  -88.782415 -16.339855 105.122271
    544    .04352  -86.627405 -19.708273 106.335678
    545     .0436  -84.393607 -23.058766 107.452373
    546    .04368  -82.083051 -26.388287 108.471337
    547    .04376  -79.697839 -29.693807 109.391646
    548    .04384  -77.240141  -32.97232 110.212461
    549    .04392  -74.712192 -36.220844 110.933037
    550      .044  -72.116292 -39.436425 111.552717
    551    .04408  -69.454801 -42.616138 112.070939
    552    .04416  -66.730139 -45.757091  112.48723
    553    .04424  -63.944786 -48.856428 112.801213
    554    .04432  -61.101274 -51.911328 113.012602
    555     .0444  -58.202189 -54.919015 113.121204
    556    .04448  -55.250169 -57.876752 113.126921
    557    .04456  -52.247898  -60.78185 113.029747
    558    .04464  -49.198107 -63.631665 112.829772
    559    .04472  -46.103569 -66.423607 112.527176
    560     .0448    -42.9671 -69.155135 112.122235
    561    .04488  -39.791551 -71.823766 111.615317
    562    .04496  -36.579812 -74.427072 111.006884
    563    .04504  -33.334802 -76.962686 110.297488
    564    .04512  -30.059474 -79.428301 109.487775
    565     .0452  -26.756807 -81.821675 108.578482
    566    .04528  -23.429804 -84.140631 107.570435
    567    .04536  -20.081491  -86.38306 106.464551
    568    .04544  -16.714914 -88.546922 105.261836
    569    .04552  -13.333135  -90.63025 103.963384
    570     .0456  -9.9392283 -92.631148 102.570376
    571    .04568  -6.5362821 -94.547797 101.084079
    572    .04576  -3.1273912 -96.378453 99.5058444
    573    .04584  .284344208 -98.121452 97.8371079
    574    .04592  3.69582097 -99.775208 96.0793872
    575      .046  7.10393632 -101.33822 94.2342809
    576    .04608  10.5055906 -102.80906 92.3034673
    577    .04616  13.8976898 -104.18639 90.2887024
    578    .04624  17.2771489 -105.46897 88.1918187
    579    .04632  20.6408942 -106.65562 86.0147233
    580     .0464  23.9858663 -107.74526 83.7593963
    581    .04648   27.309023 -108.73691  81.427889
    582    .04656  30.6073417 -109.62966  79.022322
    583    .04664  33.8778226 -110.42271  76.544883
    584    .04672  37.1174912 -111.11532 73.9978254
    585     .0468  40.3234009 -111.70687 71.3834657
    586    .04688  43.4926359 -112.19682 68.7041818
    587    .04696  46.6223138 -112.58472 65.9624105
    588    .04704   49.709588 -112.87023 63.1606455
    589    .04712  52.7516506 -113.05309  60.301435
    590     .0472   55.745735 -113.13311 57.3873795
    591    .04728  58.6891178 -113.11025 54.4211294
    592    .04736   61.579122  -112.9845 51.4053826
    593    .04744  64.4131192   -112.756 48.3428818
    594    .04752  67.1885317 -112.42494 45.2364125
    595     .0476  69.9028354 -111.99164 42.0888001
    596    .04768  72.5535614 -111.45647 38.9029073
    597    .04776   75.138299 -110.81993 35.6816318
    598    .04784  77.6546973  -110.0826 32.4279034
    599    .04792  80.1004675 -109.24515 29.1446813
    600      .048  82.4733853 -108.30834 25.8349517
    601    .04808  84.7712924 -107.27302 22.5017249
    602    .04816  86.9920988 -106.14013 19.1480325
    603    .04824  89.1337848 -104.91071 15.7769247
    604    .04832  91.1944023 -103.58587 12.3914675
    605     .0484  93.1720772 -102.16682 8.99474012
    606    .04848  95.0650109 -100.65484 5.58983191
    607    .04856  96.8714816 -99.051321 2.17983966
    608    .04864  98.5898464 -97.357711 -1.2321352
    609    .04872  100.218542 -95.575553 -4.6429894
    610     .0488  101.756088 -93.706467 -8.0496207
    611    .04888  103.201085 -91.752155 -11.448931
    612    .04896   104.55222 -89.714392 -14.837828
    613    .04904  105.808262 -87.595033  -18.21323
    614    .04912  106.968071 -85.396005 -21.572067
    615     .0492  108.030591 -83.119308 -24.911283
    616    .04928  108.994855 -80.767013 -28.227843
    617    .04936  109.859987 -78.341259 -31.518729
    618    .04944    110.6252 -75.844253 -34.780948
    619    .04952  111.289798 -73.278265 -38.011533
    620     .0496  111.853176  -70.64563 -41.207547
    621    .04968  112.314822 -67.948741 -44.366081
    622    .04976  112.674317 -65.190052 -47.484264
    623    .04984  112.931332 -62.372072 -50.559259
    624    .04992  113.085635 -59.497364 -53.588271
    625       .05  113.137085 -56.568542 -56.568542
    626    .05008  113.085635 -53.588271 -59.497364
    627    .05016  112.931332 -50.559259 -62.372072
    628    .05024  112.674317 -47.484264 -65.190052
    629    .05032  112.314822 -44.366081 -67.948741
    630     .0504  111.853176 -41.207547  -70.64563
    631    .05048  111.289798 -38.011533 -73.278265
    632    .05056    110.6252 -34.780948 -75.844253
    633    .05064  109.859987 -31.518729 -78.341259
    634    .05072  108.994855 -28.227843 -80.767013
    635     .0508  108.030591 -24.911283 -83.119308
    636    .05088  106.968071 -21.572067 -85.396005
    637    .05096  105.808262  -18.21323 -87.595033
    638    .05104   104.55222 -14.837828 -89.714392
    639    .05112  103.201085 -11.448931 -91.752155
    640     .0512  101.756088 -8.0496207 -93.706467
    641    .05128  100.218542 -4.6429894 -95.575553
    642    .05136  98.5898464 -1.2321352 -97.357711
    643    .05144  96.8714816 2.17983966 -99.051321
    644    .05152  95.0650109 5.58983191 -100.65484
    645     .0516  93.1720772 8.99474012 -102.16682
    646    .05168  91.1944023 12.3914675 -103.58587
    647    .05176  89.1337848 15.7769247 -104.91071
    648    .05184  86.9920988 19.1480325 -106.14013
    649    .05192  84.7712924 22.5017249 -107.27302
    650      .052  82.4733853 25.8349517 -108.30834
    651    .05208  80.1004675 29.1446813 -109.24515
    652    .05216  77.6546973 32.4279034  -110.0826
    653    .05224   75.138299 35.6816318 -110.81993
    654    .05232  72.5535614 38.9029073 -111.45647
    655     .0524  69.9028354 42.0888001 -111.99164
    656    .05248  67.1885317 45.2364125 -112.42494
    657    .05256  64.4131192 48.3428818   -112.756
    658    .05264   61.579122 51.4053826  -112.9845
    659    .05272  58.6891178 54.4211294 -113.11025
    660     .0528   55.745735 57.3873795 -113.13311
    661    .05288  52.7516506  60.301435 -113.05309
    662    .05296   49.709588 63.1606455 -112.87023
    663    .05304  46.6223138 65.9624105 -112.58472
    664    .05312  43.4926359 68.7041818 -112.19682
    665     .0532  40.3234009 71.3834657 -111.70687
    666    .05328  37.1174912 73.9978254 -111.11532
    667    .05336  33.8778226  76.544883 -110.42271
    668    .05344  30.6073417  79.022322 -109.62966
    669    .05352   27.309023  81.427889 -108.73691
    670     .0536  23.9858663 83.7593963 -107.74526
    671    .05368  20.6408942 86.0147233 -106.65562
    672    .05376  17.2771489 88.1918187 -105.46897
    673    .05384  13.8976898 90.2887024 -104.18639
    674    .05392  10.5055906 92.3034673 -102.80906
    675      .054  7.10393632 94.2342809 -101.33822
    676    .05408  3.69582097 96.0793872 -99.775208
    677    .05416  .284344208 97.8371079 -98.121452
    678    .05424  -3.1273912 99.5058444 -96.378453
    679    .05432  -6.5362821 101.084079 -94.547797
    680     .0544  -9.9392283 102.570376 -92.631148
    681    .05448  -13.333135 103.963384  -90.63025
    682    .05456  -16.714914 105.261836 -88.546922
    683    .05464  -20.081491 106.464551  -86.38306
    684    .05472  -23.429804 107.570435 -84.140631
    685     .0548  -26.756807 108.578482 -81.821675
    686    .05488  -30.059474 109.487775 -79.428301
    687    .05496  -33.334802 110.297488 -76.962686
    688    .05504  -36.579812 111.006884 -74.427072
    689    .05512  -39.791551 111.615317 -71.823766
    690     .0552    -42.9671 112.122235 -69.155135
    691    .05528  -46.103569 112.527176 -66.423607
    692    .05536  -49.198107 112.829772 -63.631665
    693    .05544  -52.247898 113.029747  -60.78185
    694    .05552  -55.250169 113.126921 -57.876752
    695     .0556  -58.202189 113.121204 -54.919015
    696    .05568  -61.101274 113.012602 -51.911328
    697    .05576  -63.944786 112.801213 -48.856428
    698    .05584  -66.730139  112.48723 -45.757091
    699    .05592  -69.454801 112.070939 -42.616138
    700      .056  -72.116292 111.552717 -39.436425
    701    .05608  -74.712192 110.933037 -36.220844
    702    .05616  -77.240141 110.212461  -32.97232
    703    .05624  -79.697839 109.391646 -29.693807
    704    .05632  -82.083051 108.471337 -26.388287
    705     .0564  -84.393607 107.452373 -23.058766
    706    .05648  -86.627405 106.335678 -19.708273
    707    .05656  -88.782415 105.122271 -16.339855
    708    .05664  -90.856676 103.813253 -12.956576
    709    .05672  -92.848302 102.409815  -9.561513
    710     .0568  -94.755481 100.913234 -6.1577534
    711    .05688  -96.576478 99.3248714 -2.7483932
    712    .05696  -98.309638 97.6461713 .663466714
    713    .05704  -99.953384 95.8786607 4.07472318
    714    .05712  -101.50622 94.0239471 7.48227362
    715     .0572  -102.96674 92.0837174 10.8830188
    716    .05728   -104.3336 90.0597363 14.2738658
    717    .05736  -105.60558 87.9538447 17.6517305
    718    .05744   -106.7815 85.7679578 21.0135407
    719    .05752   -107.8603 83.5040638 24.3562387
    720     .0576  -108.84101 81.1642216 27.6767845
    721    .05768  -109.72272 78.7505595 30.9721578
    722    .05776  -110.50463 76.2652727 34.2393615
    723    .05784  -111.18605 73.7106216 37.4754241
    724    .05792  -111.76633 71.0889296 40.6774022
    725      .058  -112.24496 68.4025812 43.8423837
    726    .05808  -112.62151 65.6540198 46.9674899
    727    .05816  -112.89562 62.8457452 50.0498786
    728    .05824  -113.06706 59.9803114 53.0867462
    729    .05832  -113.13566 57.0603248 56.0753306
    730     .0584  -113.10135 54.0884409 59.0129138
    731    .05848  -112.96419  51.067363 61.8968239
    732    .05856  -112.72428 47.9998385  64.724438
    733    .05864  -112.38184 44.8886575 67.4931844
    734    .05872  -111.93719 41.7366497 70.2005447
    735     .0588  -111.39074 38.5466818 72.8440567
    736    .05888  -110.74297 35.3216551  75.421316
    737    .05896  -109.99448  32.064503 77.9299786
    738    .05904  -109.14595 28.7781877 80.3677628
    739    .05912  -108.19815 25.4656983 82.7324514
    740     .0592  -107.15194 22.1300474 85.0218937
    741    .05928  -106.00828  18.774269 87.2340074
    742    .05936   -104.7682 15.4014151 89.3667806
    743    .05944  -103.43283 12.0145535 91.4182734
    744    .05952  -102.00338 8.61676439 93.3866201
    745     .0596  -100.48117 5.21113825 95.2700304
    746    .05968  -98.867564  1.8007725 97.0667912
    747    .05976  -97.164037 -1.6112311 98.7752685
    748    .05984  -95.372139 -5.0217692 100.393908
    749    .05992  -93.493498   -8.42774 101.921238
    750       .06  -91.529824 -11.826046  103.35587
    751    .06008  -89.482902 -15.213595 104.696498
    752    .06016  -87.354594 -18.587308 105.941902
    753    .06024  -85.146836 -21.944115 107.090952
    754    .06032  -82.861636 -25.280964   108.1426
    755     .0604  -80.501072 -28.594819 109.095892
    756    .06048  -78.067291 -31.882668 109.949959
    757    .06056  -75.562507 -35.141518 110.704025
    758    .06064  -72.988998 -38.368406 111.357404
    759    .06072  -70.349104 -41.560398 111.909502
    760     .0608  -67.645227 -44.714591 112.359817
    761    .06088  -64.879825 -47.828114  112.70794
    762    .06096  -62.055414 -50.898138 112.953552
    763    .06104  -59.174564 -53.921869 113.096432
    764    .06112  -56.239893 -56.896557 113.136449
    765     .0612  -53.254071 -59.819497 113.073567
    766    .06128  -50.219813  -62.68803 112.907843
    767    .06136   -47.13988 -65.499548 112.639428
    768    .06144  -44.017073 -68.251493 112.268566
    769    .06152  -40.854232 -70.941362 111.795594
    770     .0616  -37.654233 -73.566709 111.220942
    771    .06168  -34.419987 -76.125146 110.545133
    772    .06176  -31.154436 -78.614347 109.768782
    773    .06184  -27.860549 -81.032046 108.892595
    774    .06192  -24.541323 -83.376046 107.917368
    775      .062  -21.199776 -85.644214 106.843989
    776    .06208  -17.838947 -87.834487 105.673434
    777    .06216  -14.461894 -89.944874 104.406768
    778    .06224  -11.071687 -91.973455 103.045142
    779    .06232   -7.671411 -93.918384 101.589795
    780     .0624  -4.2641574 -95.777894 100.042051
    781    .06248  -.85302544 -97.550292 98.4033171
    782    .06256  2.55888235 -99.233967 96.6750842
    783    .06264   5.9684628 -100.82739 94.8589239
    784    .06272  9.37261484  -102.3291 92.9564881
    785     .0628  12.7682424 -103.73775 90.9695071
    786    .06288   16.152257 -105.05205  88.899788
    787    .06296  19.5215809 -106.27079 86.7492134
    788    .06304  22.8731497 -107.39289 84.5197392
    789    .06312  26.2039151 -108.41731 82.2133931
    790     .0632  29.5108476 -109.34312 79.8322728
    791    .06328  32.7909396 -110.16948  77.378544
    792    .06336  36.0412078 -110.89565 74.8544383
    793    .06344   39.258696 -111.52095 72.2622514
    794    .06352  42.4404778 -112.04482  69.604341
    795     .0636  45.5836595 -112.46678 66.8831246
    796    .06368  48.6853822 -112.78646  64.101077
    797    .06376  51.7428249 -113.00355 61.2607285
    798    .06384  54.7532068 -113.11787 58.3646626
    799    .06392  57.7137899  -113.1293 55.4155133
    800      .064  60.6218815 -113.03784 52.4159628
    801    .06408  63.4748366 -112.84358 49.3687392
    802    .06416  66.2700605 -112.54667 46.2766141
    803    .06424  69.0050109 -112.14741 43.1423997
    804    .06432  71.6772003 -111.64615 39.9689468
    805     .0644  74.2841982 -111.04334 36.7591415
    806    .06448  76.8236337 -110.33954 33.5159033
    807    .06456   79.293197 -109.53538 30.2421819
    808    .06464  81.6906421  -108.6316 26.9409548
    809    .06472  84.0137883 -107.62901 23.6152246
    810     .0648  86.2605229 -106.52854  20.268016
    811    .06488  88.4288024 -105.33118 16.9023733
    812    .06496  90.5166546 -104.03801 13.5213578
    813    .06504  92.5221807 -102.65022 10.1280443
    814    .06512  94.4435566 -101.16908 6.72551925
    815     .0652  96.2790347 -99.595912 3.31687725
    816    .06528  98.0269458 -97.932164 -.09478149
    817    .06536     99.6857 -96.179346  -3.506354
    818    .06544  101.253789 -94.339051 -6.9147375
    819    .06552  102.729786 -92.412954 -10.316832
    820     .0656  104.112348 -90.402805 -13.709543
    821    .06568   105.40022 -88.310434 -17.089785
    822    .06576  106.592228 -86.137744 -20.454484
    823    .06584  107.687289  -83.88671 -23.800579
    824    .06592  108.684407  -81.55938 -27.125027
    825      .066  109.582675 -79.157871 -30.424805
    826    .06608  110.381276 -76.684366  -33.69691
    827    .06616  111.079484 -74.141116 -36.938368
    828    .06624  111.676664 -71.530433  -40.14623
    829    .06632  112.172272 -68.854693 -43.317579
    830     .0664  112.565857 -66.116328 -46.449529
    831    .06648  112.857063  -63.31783 -49.539233
    832    .06656  113.045624 -60.461743 -52.583881
    833    .06664  113.131368 -57.550665 -55.580702
    834    .06672  113.114217 -54.587245 -58.526972
    835     .0668  112.994188 -51.574176 -61.420011
    836    .06688  112.771388   -48.5142 -64.257188
    837    .06696  112.446022   -45.4101 -67.035922
    838    .06704  112.018384 -42.264698 -69.753686
    839    .06712  111.488865 -39.080856 -72.408008
    840     .0672  110.857944  -35.86147 -74.996474
    841    .06728  110.126197 -32.609467 -77.516729
    842    .06736  109.294288 -29.327806 -79.966482
    843    .06744  108.362975  -26.01947 -82.343505
    844    .06752  107.333104 -22.687469 -84.645635
    845     .0676  106.205612 -19.334834 -86.870778
    846    .06768  104.981525 -15.964613 -89.016911
    847    .06776  103.661955 -12.579873 -91.082083
    848    .06784  102.248104 -9.1836904 -93.064413
    849    .06792  100.741256 -5.7791555 -94.962101
    850      .068  99.1427831 -2.3693643 -96.773419
    851    .06808  97.4541382 1.04258177  -98.49672
    852    .06816  95.6768575 4.45357963 -100.13044
    853    .06824  93.8125574  7.8605269 -101.67308
    854    .06832  91.8629335 11.2603249 -103.12326
    855     .0684   89.829759 14.6498815 -104.47964
    856    .06848   87.714883 18.0261138   -105.741
    857    .06856  85.5202292 21.3859511 -106.90618
    858    .06864  83.2477935 24.7263376 -107.97413
    859    .06872  80.8996428 28.0442352 -108.94388
    860     .0688  78.4779128 31.3366261 -109.81454
    861    .06888   75.984806  34.600516 -110.58532
    862    .06896    73.42259 37.8329362 -111.25553
    863    .06904  70.7935952 41.0309468 -111.82454
    864    .06912  68.1002125 44.1916392 -112.29185
    865     .0692  65.3448918 47.3121387 -112.65703
    866    .06928  62.5301391 50.3896072 -112.91975
    867    .06936  59.6585143 53.4212456 -113.07976
    868    .06944  56.7326292 56.4042966 -113.13693
    869    .06952  53.7551451 59.3360472 -113.09119
    870     .0696  50.7287699 62.2138308  -112.9426
    871    .06968  47.6562562 65.0350301 -112.69129
    872    .06976  44.5403984 67.7970791 -112.33748
    873    .06984  41.3840306 70.4974658  -111.8815
    874    .06992  38.1900234  73.133734 -111.32376
    875       .07  34.9612819 75.7034861 -110.66477
    876    .07008  31.7007425 78.2043848 -109.90513
    877    .07016   28.411371 80.6341555 -109.04553
    878    .07024  25.0961589 82.9905884 -108.08675
    879    .07032  21.7581215 85.2715402 -107.02966
    880     .0704  18.4002947 87.4749363 -105.87523
    881    .07048  15.0257327 89.5987728 -104.62451
    882    .07056  11.6375045  91.641118 -103.27862
    883    .07064   8.2386919 93.6001143 -101.83881
    884    .07072  4.83238607   95.47398 -100.30637
    885     .0708  1.42168512 97.2610108 -98.682696
    886    .07088  -1.9903089 98.9595814 -96.969273
    887    .07096  -5.4004927 100.568147 -95.167654
    888    .07104  -8.8057646 102.085244  -93.27948
    889    .07112  -12.203028 103.509494 -91.306466
    890     .0712  -15.589192   104.8396 -89.250408
    891    .07128  -18.961177 106.074353 -87.113175
    892    .07136  -22.315918  107.21263 -84.896712
    893    .07144  -25.650361 108.253395 -82.603034
    894    .07152  -28.961475 109.195703 -80.234228
    895     .0716  -32.246248 110.038696 -77.792447
    896    .07168  -35.501693 110.781606 -75.279913
    897    .07176  -38.724849  111.42376 -72.698911
    898    .07184  -41.912784 111.964572 -70.051788
    899    .07192  -45.062598 112.403551 -67.340953
    900      .072  -48.171428 112.740297 -64.568869
    901    .07208  -51.236445 112.974504  -61.73806
    902    .07216  -54.254861  113.10596 -58.851098
    903    .07224  -57.223932 113.134544 -55.910611
    904    .07232  -60.140958  113.06023 -52.919273
    905     .0724  -63.003284 112.883087 -49.879803
    906    .07248  -65.808308 112.603275 -46.794968
    907    .07256  -68.553478 112.221049 -43.667571
    908    .07264  -71.236298 111.736756 -40.500458
    909    .07272  -73.854327 111.150837  -37.29651
    910     .0728  -76.405185 110.463825  -34.05864
    911    .07288  -78.886551 109.676344 -30.789793
    912    .07296  -81.296169 108.789112 -27.492942
    913    .07304  -83.631847 107.802934 -24.171086
    914    .07312  -85.891461 106.718708 -20.827247
    915     .0732  -88.072955  105.53742 -17.464464
    916    .07328  -90.174346 104.260144 -14.085798
    917    .07336  -92.193722 102.888041  -10.69432
    918    .07344  -94.129246 101.422361 -7.2931152
    919    .07352  -95.979159 99.8644362 -3.8852775
    920     .0736  -97.741777 98.2156829 -.47390613
    921    .07368  -99.415497 96.4776011  2.9378963
    922    .07376   -100.9988 94.6517717 6.34702666
    923    .07384  -102.49024 92.7398551 9.75038432
    924    .07392  -103.88846 90.7435903 13.1448739
    925      .074   -105.1922  88.664793  16.527408
    926    .07408  -106.40026 86.5053539 19.8949102
    927    .07416  -107.51155 84.2672369 23.2443177
    928    .07424  -108.52506 81.9524777 26.5725841
    929    .07432  -109.43986 79.5631816 29.8766825
    930     .0744  -110.25513 77.1015217 33.1536076
    931    .07448  -110.97012 74.5697369  36.400379
    932    .07456  -111.58417 71.9701299 39.6140438
    933    .07464  -112.09674 69.3050651  42.791679
    934    .07472  -112.50736 66.5769664 45.9303947
    935     .0748  -112.81565 63.7883149  49.027336
    936    .07488  -113.02133 60.9416472 52.0796863
    937    .07496  -113.12422 58.0395521 55.0846693
    938    .07504  -113.12422 55.0846693 58.0395521
    939    .07512  -113.02133 52.0796863 60.9416472
    940     .0752  -112.81565  49.027336 63.7883149
    941    .07528  -112.50736 45.9303947 66.5769664
    942    .07536  -112.09674  42.791679 69.3050651
    943    .07544  -111.58417 39.6140438 71.9701299
    944    .07552  -110.97012  36.400379 74.5697369
    945     .0756  -110.25513 33.1536076 77.1015217
    946    .07568  -109.43986 29.8766825 79.5631816
    947    .07576  -108.52506 26.5725841 81.9524777
    948    .07584  -107.51155 23.2443177 84.2672369
    949    .07592  -106.40026 19.8949102 86.5053539
    950      .076   -105.1922  16.527408  88.664793
    951    .07608  -103.88846 13.1448739 90.7435903
    952    .07616  -102.49024 9.75038432 92.7398551
    953    .07624   -100.9988 6.34702666 94.6517717
    954    .07632  -99.415497  2.9378963 96.4776011
    955     .0764  -97.741777 -.47390613 98.2156829
    956    .07648  -95.979159 -3.8852775 99.8644362
    957    .07656  -94.129246 -7.2931152 101.422361
    958    .07664  -92.193722  -10.69432 102.888041
    959    .07672  -90.174346 -14.085798 104.260144
    960     .0768  -88.072955 -17.464464  105.53742
    961    .07688  -85.891461 -20.827247 106.718708
    962    .07696  -83.631847 -24.171086 107.802934
    963    .07704  -81.296169 -27.492942 108.789112
    964    .07712  -78.886551 -30.789793 109.676344
    965     .0772  -76.405185  -34.05864 110.463825
    966    .07728  -73.854327  -37.29651 111.150837
    967    .07736  -71.236298 -40.500458 111.736756
    968    .07744  -68.553478 -43.667571 112.221049
    969    .07752  -65.808308 -46.794968 112.603275
    970     .0776  -63.003284 -49.879803 112.883087
    971    .07768  -60.140958 -52.919273  113.06023
    972    .07776  -57.223932 -55.910611 113.134544
    973    .07784  -54.254861 -58.851098  113.10596
    974    .07792  -51.236445  -61.73806 112.974504
    975      .078  -48.171428 -64.568869 112.740297
    976    .07808  -45.062598 -67.340953 112.403551
    977    .07816  -41.912784 -70.051788 111.964572
    978    .07824  -38.724849 -72.698911  111.42376
    979    .07832  -35.501693 -75.279913 110.781606
    980     .0784  -32.246248 -77.792447 110.038696
    981    .07848  -28.961475 -80.234228 109.195703
    982    .07856  -25.650361 -82.603034 108.253395
    983    .07864  -22.315918 -84.896712  107.21263
    984    .07872  -18.961177 -87.113175 106.074353
    985     .0788  -15.589192 -89.250408   104.8396
    986    .07888  -12.203028 -91.306466 103.509494
    987    .07896  -8.8057646  -93.27948 102.085244
    988    .07904  -5.4004927 -95.167654 100.568147
    989    .07912  -1.9903089 -96.969273 98.9595814
    990     .0792  1.42168512 -98.682696 97.2610108
    991    .07928  4.83238607 -100.30637   95.47398
    992    .07936   8.2386919 -101.83881 93.6001143
    993    .07944  11.6375045 -103.27862  91.641118
    994    .07952  15.0257327 -104.62451 89.5987728
    995     .0796  18.4002947 -105.87523 87.4749363
    996    .07968  21.7581215 -107.02966 85.2715402
    997    .07976  25.0961589 -108.08675 82.9905884
    998    .07984   28.411371 -109.04553 80.6341555
    999    .07992  31.7007425 -109.90513 78.2043848
   1000       .08  34.9612819 -110.66477 75.7034861
   1001    .08008  38.1900234 -111.32376  73.133734
   1002    .08016  41.3840306  -111.8815 70.4974658
   1003    .08024  44.5403984 -112.33748 67.7970791
   1004    .08032  47.6562562 -112.69129 65.0350301
   1005     .0804  50.7287699  -112.9426 62.2138308
   1006    .08048  53.7551451 -113.09119 59.3360472
   1007    .08056  56.7326292 -113.13693 56.4042966
   1008    .08064  59.6585143 -113.07976 53.4212456
   1009    .08072  62.5301391 -112.91975 50.3896072
   1010     .0808  65.3448918 -112.65703 47.3121387
   1011    .08088  68.1002125 -112.29185 44.1916392
   1012    .08096  70.7935952 -111.82454 41.0309468
   1013    .08104    73.42259 -111.25553 37.8329362
   1014    .08112   75.984806 -110.58532  34.600516
   1015     .0812  78.4779128 -109.81454 31.3366261
   1016    .08128  80.8996428 -108.94388 28.0442352
   1017    .08136  83.2477935 -107.97413 24.7263376
   1018    .08144  85.5202292 -106.90618 21.3859511
   1019    .08152   87.714883   -105.741 18.0261138
   1020     .0816   89.829759 -104.47964 14.6498815
   1021    .08168  91.8629335 -103.12326 11.2603249
   1022    .08176  93.8125574 -101.67308  7.8605269
   1023    .08184  95.6768575 -100.13044 4.45357963
   1024    .08192  97.4541382  -98.49672 1.04258177
   1025      .082  99.1427831 -96.773419 -2.3693643
   1026    .08208  100.741256 -94.962101 -5.7791555
   1027    .08216  102.248104 -93.064413 -9.1836904
   1028    .08224  103.661955 -91.082083 -12.579873
   1029    .08232  104.981525 -89.016911 -15.964613
   1030     .0824  106.205612 -86.870778 -19.334834
   1031    .08248  107.333104 -84.645635 -22.687469
   1032    .08256  108.362975 -82.343505  -26.01947
   1033    .08264  109.294288 -79.966482 -29.327806
   1034    .08272  110.126197 -77.516729 -32.609467
   1035     .0828  110.857944 -74.996474  -35.86147
   1036    .08288  111.488865 -72.408008 -39.080856
   1037    .08296  112.018384 -69.753686 -42.264698
   1038    .08304  112.446022 -67.035922   -45.4101
   1039    .08312  112.771388 -64.257188   -48.5142
   1040     .0832  112.994188 -61.420011 -51.574176
   1041    .08328  113.114217 -58.526972 -54.587245
   1042    .08336  113.131368 -55.580702 -57.550665
   1043    .08344  113.045624 -52.583881 -60.461743
   1044    .08352  112.857063 -49.539233  -63.31783
   1045     .0836  112.565857 -46.449529 -66.116328
   1046    .08368  112.172272 -43.317579 -68.854693
   1047    .08376  111.676664  -40.14623 -71.530433
   1048    .08384  111.079484 -36.938368 -74.141116
   1049    .08392  110.381276  -33.69691 -76.684366
   1050      .084  109.582675 -30.424805 -79.157871
   1051    .08408  108.684407 -27.125027  -81.55938
   1052    .08416  107.687289 -23.800579  -83.88671
   1053    .08424  106.592228 -20.454484 -86.137744
   1054    .08432   105.40022 -17.089785 -88.310434
   1055     .0844  104.112348 -13.709543 -90.402805
   1056    .08448  102.729786 -10.316832 -92.412954
   1057    .08456  101.253789 -6.9147375 -94.339051
   1058    .08464     99.6857  -3.506354 -96.179346
   1059    .08472  98.0269458 -.09478149 -97.932164
   1060     .0848  96.2790347 3.31687725 -99.595912
   1061    .08488  94.4435566 6.72551925 -101.16908
   1062    .08496  92.5221807 10.1280443 -102.65022
   1063    .08504  90.5166546 13.5213578 -104.03801
   1064    .08512  88.4288024 16.9023733 -105.33118
   1065     .0852  86.2605229  20.268016 -106.52854
   1066    .08528  84.0137883 23.6152246 -107.62901
   1067    .08536  81.6906421 26.9409548  -108.6316
   1068    .08544   79.293197 30.2421819 -109.53538
   1069    .08552  76.8236337 33.5159033 -110.33954
   1070     .0856  74.2841982 36.7591415 -111.04334
   1071    .08568  71.6772003 39.9689468 -111.64615
   1072    .08576  69.0050109 43.1423997 -112.14741
   1073    .08584  66.2700605  46.276614 -112.54667
   1074    .08592  63.4748366 49.3687392 -112.84358
   1075      .086  60.6218815 52.4159628 -113.03784
   1076    .08608  57.7137899 55.4155133  -113.1293
   1077    .08616  54.7532068 58.3646626 -113.11787
   1078    .08624  51.7428249 61.2607285 -113.00355
   1079    .08632  48.6853822  64.101077 -112.78646
   1080     .0864  45.5836595 66.8831246 -112.46678
   1081    .08648  42.4404778  69.604341 -112.04482
   1082    .08656   39.258696 72.2622514 -111.52095
   1083    .08664  36.0412078 74.8544383 -110.89565
   1084    .08672  32.7909396  77.378544 -110.16948
   1085     .0868  29.5108476 79.8322728 -109.34312
   1086    .08688  26.2039151 82.2133931 -108.41731
   1087    .08696  22.8731497 84.5197392 -107.39289
   1088    .08704  19.5215809 86.7492134 -106.27079
   1089    .08712   16.152257  88.899788 -105.05205
   1090     .0872  12.7682424 90.9695071 -103.73775
   1091    .08728  9.37261484 92.9564881  -102.3291
   1092    .08736   5.9684628 94.8589239 -100.82739
   1093    .08744  2.55888235 96.6750842 -99.233967
   1094    .08752  -.85302544 98.4033171 -97.550292
   1095     .0876  -4.2641574 100.042051 -95.777894
   1096    .08768   -7.671411 101.589795 -93.918384
   1097    .08776  -11.071687 103.045142 -91.973455
   1098    .08784  -14.461894 104.406768 -89.944874
   1099    .08792  -17.838947 105.673434 -87.834487
   1100      .088  -21.199776 106.843989 -85.644214
   1101    .08808  -24.541323 107.917368 -83.376046
   1102    .08816  -27.860549 108.892595 -81.032046
   1103    .08824  -31.154436 109.768782 -78.614347
   1104    .08832  -34.419987 110.545133 -76.125146
   1105     .0884  -37.654233 111.220942 -73.566709
   1106    .08848  -40.854232 111.795594 -70.941362
   1107    .08856  -44.017073 112.268566 -68.251493
   1108    .08864   -47.13988 112.639428 -65.499548
   1109    .08872  -50.219813 112.907843  -62.68803
   1110     .0888  -53.254071 113.073567 -59.819497
   1111    .08888  -56.239893 113.136449 -56.896557
   1112    .08896  -59.174564 113.096432 -53.921869
   1113    .08904  -62.055414 112.953552 -50.898138
   1114    .08912  -64.879825  112.70794 -47.828114
   1115     .0892  -67.645227 112.359817 -44.714591
   1116    .08928  -70.349104 111.909502 -41.560398
   1117    .08936  -72.988998 111.357404 -38.368406
   1118    .08944  -75.562507 110.704025 -35.141518
   1119    .08952  -78.067291 109.949959 -31.882668
   1120     .0896  -80.501072 109.095892 -28.594819
   1121    .08968  -82.861636   108.1426 -25.280964
   1122    .08976  -85.146836 107.090952 -21.944115
   1123    .08984  -87.354594 105.941902 -18.587308
   1124    .08992  -89.482902 104.696498 -15.213595
   1125       .09  -91.529824  103.35587 -11.826046
   1126    .09008  -93.493498 101.921238   -8.42774
   1127    .09016  -95.372139 100.393908 -5.0217692
   1128    .09024  -97.164037 98.7752685 -1.6112311
   1129    .09032  -98.867564 97.0667912  1.8007725
   1130     .0904  -100.48117 95.2700304 5.21113825
   1131    .09048  -102.00338 93.3866201 8.61676439
   1132    .09056  -103.43283 91.4182734 12.0145535
   1133    .09064   -104.7682 89.3667806 15.4014151
   1134    .09072  -106.00828 87.2340074  18.774269
   1135     .0908  -107.15194 85.0218937 22.1300474
   1136    .09088  -108.19815 82.7324514 25.4656983
   1137    .09096  -109.14595 80.3677628 28.7781877
   1138    .09104  -109.99448 77.9299786  32.064503
   1139    .09112  -110.74297  75.421316 35.3216551
   1140     .0912  -111.39074 72.8440567 38.5466818
   1141    .09128  -111.93719 70.2005447 41.7366497
   1142    .09136  -112.38184 67.4931844 44.8886575
   1143    .09144  -112.72428  64.724438 47.9998385
   1144    .09152  -112.96419 61.8968239  51.067363
   1145     .0916  -113.10135 59.0129138 54.0884409
   1146    .09168  -113.13566 56.0753306 57.0603248
   1147    .09176  -113.06706 53.0867462 59.9803114
   1148    .09184  -112.89562 50.0498786 62.8457452
   1149    .09192  -112.62151 46.9674899 65.6540198
   1150      .092  -112.24496 43.8423837 68.4025812
   1151    .09208  -111.76633 40.6774022 71.0889296
   1152    .09216  -111.18605 37.4754241 73.7106216
   1153    .09224  -110.50463 34.2393615 76.2652727
   1154    .09232  -109.72272 30.9721578 78.7505595
   1155     .0924  -108.84101 27.6767845 81.1642216
   1156    .09248   -107.8603 24.3562387 83.5040638
   1157    .09256   -106.7815 21.0135407 85.7679578
   1158    .09264  -105.60558 17.6517305 87.9538447
   1159    .09272   -104.3336 14.2738658 90.0597363
   1160     .0928  -102.96674 10.8830188 92.0837174
   1161    .09288  -101.50622 7.48227362 94.0239471
   1162    .09296  -99.953384 4.07472318 95.8786607
   1163    .09304  -98.309638 .663466714 97.6461713
   1164    .09312  -96.576478 -2.7483932 99.3248714
   1165     .0932  -94.755481 -6.1577534 100.913234
   1166    .09328  -92.848302  -9.561513 102.409815
   1167    .09336  -90.856676 -12.956576 103.813253
   1168    .09344  -88.782415 -16.339855 105.122271
   1169    .09352  -86.627405 -19.708273 106.335678
   1170     .0936  -84.393607 -23.058766 107.452373
   1171    .09368  -82.083051 -26.388287 108.471337
   1172    .09376  -79.697839 -29.693807 109.391646
   1173    .09384  -77.240141  -32.97232 110.212461
   1174    .09392  -74.712192 -36.220844 110.933037
   1175      .094  -72.116292 -39.436425 111.552717
   1176    .09408  -69.454801 -42.616138 112.070939
   1177    .09416  -66.730139 -45.757091  112.48723
   1178    .09424  -63.944786 -48.856428 112.801213
   1179    .09432  -61.101274 -51.911328 113.012602
   1180     .0944  -58.202189 -54.919015 113.121204
   1181    .09448  -55.250169 -57.876752 113.126921
   1182    .09456  -52.247898  -60.78185 113.029747
   1183    .09464  -49.198107 -63.631665 112.829772
   1184    .09472  -46.103569 -66.423607 112.527176
   1185     .0948    -42.9671 -69.155135 112.122235
   1186    .09488  -39.791551 -71.823766 111.615317
   1187    .09496  -36.579812 -74.427072 111.006884
   1188    .09504  -33.334802 -76.962686 110.297488
   1189    .09512  -30.059474 -79.428301 109.487775
   1190     .0952  -26.756807 -81.821675 108.578482
   1191    .09528  -23.429804 -84.140631 107.570435
   1192    .09536  -20.081491  -86.38306 106.464551
   1193    .09544  -16.714914 -88.546922 105.261836
   1194    .09552  -13.333135  -90.63025 103.963384
   1195     .0956  -9.9392283 -92.631148 102.570376
   1196    .09568  -6.5362821 -94.547797 101.084079
   1197    .09576  -3.1273912 -96.378453 99.5058444
   1198    .09584  .284344208 -98.121452 97.8371079
   1199    .09592  3.69582097 -99.775208 96.0793872
   1200      .096  7.10393632 -101.33822 94.2342809
   1201    .09608  10.5055906 -102.80906 92.3034673
   1202    .09616  13.8976898 -104.18639 90.2887024
   1203    .09624  17.2771489 -105.46897 88.1918187
   1204    .09632  20.6408942 -106.65562 86.0147233
   1205     .0964  23.9858663 -107.74526 83.7593963
   1206    .09648   27.309023 -108.73691  81.427889
   1207    .09656  30.6073417 -109.62966  79.022322
   1208    .09664  33.8778226 -110.42271  76.544883
   1209    .09672  37.1174912 -111.11532 73.9978254
   1210     .0968  40.3234009 -111.70687 71.3834657
   1211    .09688  43.4926359 -112.19682 68.7041818
   1212    .09696  46.6223138 -112.58472 65.9624105
   1213    .09704   49.709588 -112.87023 63.1606455
   1214    .09712  52.7516506 -113.05309  60.301435
   1215     .0972   55.745735 -113.13311 57.3873795
   1216    .09728  58.6891178 -113.11025 54.4211294
   1217    .09736   61.579122  -112.9845 51.4053826
   1218    .09744  64.4131192   -112.756 48.3428818
   1219    .09752  67.1885317 -112.42494 45.2364125
   1220     .0976  69.9028354 -111.99164 42.0888001
   1221    .09768  72.5535614 -111.45647 38.9029073
[...]
  49736   3.97888  -12.203027 -91.306466 103.509494
  49737   3.97896  -8.8057645  -93.27948 102.085244
  49738   3.97904  -5.4004925 -95.167654 100.568147
  49739   3.97912  -1.9903088 -96.969273 98.9595813
  49740    3.9792  1.42168524 -98.682696 97.2610108
  49741   3.97928  4.83238619 -100.30637 95.4739799
  49742   3.97936  8.23869202 -101.83881 93.6001142
  49743   3.97944  11.6375046 -103.27862 91.6411179
  49744   3.97952  15.0257328 -104.62451 89.5987728
  49745    3.9796  18.4002948 -105.87523 87.4749363
  49746   3.97968  21.7581216 -107.02966 85.2715401
  49747   3.97976   25.096159 -108.08675 82.9905883
  49748   3.97984  28.4113711 -109.04553 80.6341555
  49749   3.97992  31.7007427 -109.90513 78.2043847
  49750      3.98   34.961282 -110.66477  75.703486
  49751   3.98008  38.1900235 -111.32376 73.1337339
  49752   3.98016  41.3840307  -111.8815 70.4974657
  49753   3.98024  44.5403985 -112.33748  67.797079
  49754   3.98032  47.6562563 -112.69129   65.03503
  49755    3.9804    50.72877  -112.9426 62.2138307
  49756   3.98048  53.7551452 -113.09119 59.3360471
  49757   3.98056  56.7326293 -113.13693 56.4042965
  49758   3.98064  59.6585144 -113.07976 53.4212455
  49759   3.98072  62.5301392 -112.91975  50.389607
  49760    3.9808  65.3448919 -112.65703 47.3121386
  49761   3.98088  68.1002126 -112.29185 44.1916391
  49762   3.98096  70.7935953 -111.82454 41.0309467
  49763   3.98104  73.4225901 -111.25553 37.8329361
  49764   3.98112  75.9848061 -110.58532 34.6005159
  49765    3.9812  78.4779129 -109.81454  31.336626
  49766   3.98128  80.8996429 -108.94388 28.0442351
  49767   3.98136  83.2477936 -107.97413 24.7263375
  49768   3.98144  85.5202293 -106.90618  21.385951
  49769   3.98152  87.7148831   -105.741 18.0261137
  49770    3.9816   89.829759 -104.47964 14.6498814
  49771   3.98168  91.8629336 -103.12326 11.2603248
  49772   3.98176  93.8125575 -101.67308 7.86052677
  49773   3.98184  95.6768576 -100.13044 4.45357951
  49774   3.98192  97.4541383  -98.49672 1.04258165
  49775     3.982  99.1427831 -96.773419 -2.3693645
  49776   3.98208  100.741256 -94.962101 -5.7791556
  49777   3.98216  102.248104 -93.064413 -9.1836905
  49778   3.98224  103.661955 -91.082082 -12.579873
  49779   3.98232  104.981525 -89.016911 -15.964613
  49780    3.9824  106.205612 -86.870778 -19.334834
  49781   3.98248  107.333104 -84.645635 -22.687469
  49782   3.98256  108.362975 -82.343505  -26.01947
  49783   3.98264  109.294288 -79.966482 -29.327806
  49784   3.98272  110.126197 -77.516729 -32.609467
  49785    3.9828  110.857944 -74.996474  -35.86147
  49786   3.98288  111.488865 -72.408008 -39.080857
  49787   3.98296  112.018384 -69.753686 -42.264698
  49788   3.98304  112.446022 -67.035922   -45.4101
  49789   3.98312  112.771388 -64.257188   -48.5142
  49790    3.9832  112.994188 -61.420011 -51.574176
  49791   3.98328  113.114217 -58.526972 -54.587245
  49792   3.98336  113.131368 -55.580702 -57.550666
  49793   3.98344  113.045624  -52.58388 -60.461743
  49794   3.98352  112.857063 -49.539233  -63.31783
  49795    3.9836  112.565857 -46.449529 -66.116328
  49796   3.98368  112.172272 -43.317578 -68.854693
  49797   3.98376  111.676664  -40.14623 -71.530434
  49798   3.98384  111.079484 -36.938368 -74.141116
  49799   3.98392  110.381276  -33.69691 -76.684366
  49800     3.984  109.582675 -30.424804 -79.157871
  49801   3.98408  108.684407 -27.125027  -81.55938
  49802   3.98416  107.687289 -23.800579  -83.88671
  49803   3.98424  106.592228 -20.454484 -86.137744
  49804   3.98432   105.40022 -17.089785 -88.310435
  49805    3.9844  104.112348 -13.709543 -90.402805
  49806   3.98448  102.729786 -10.316832 -92.412954
  49807   3.98456  101.253789 -6.9147374 -94.339051
  49808   3.98464  99.6856999 -3.5063539 -96.179346
  49809   3.98472  98.0269457 -.09478137 -97.932164
  49810    3.9848  96.2790347 3.31687738 -99.595912
  49811   3.98488  94.4435565 6.72551938 -101.16908
  49812   3.98496  92.5221806 10.1280444 -102.65023
  49813   3.98504  90.5166545 13.5213579 -104.03801
  49814   3.98512  88.4288023 16.9023735 -105.33118
  49815    3.9852  86.2605228 20.2680161 -106.52854
  49816   3.98528  84.0137883 23.6152247 -107.62901
  49817   3.98536   81.690642  26.940955  -108.6316
  49818   3.98544  79.2931969  30.242182 -109.53538
  49819   3.98552  76.8236336 33.5159034 -110.33954
  49820    3.9856  74.2841981 36.7591416 -111.04334
  49821   3.98568  71.6772002 39.9689469 -111.64615
  49822   3.98576  69.0050108 43.1423998 -112.14741
  49823   3.98584  66.2700604 46.2766142 -112.54667
  49824   3.98592  63.4748365 49.3687393 -112.84358
  49825     3.986  60.6218814 52.4159629 -113.03784
  49826   3.98608  57.7137898 55.4155134  -113.1293
  49827   3.98616  54.7532067 58.3646628 -113.11787
  49828   3.98624  51.7428248 61.2607286 -113.00355
  49829   3.98632  48.6853821 64.1010771 -112.78646
  49830    3.9864  45.5836594 66.8831247 -112.46678
  49831   3.98648  42.4404777 69.6043411 -112.04482
  49832   3.98656  39.2586959 72.2622515 -111.52095
  49833   3.98664  36.0412076 74.8544384 -110.89565
  49834   3.98672  32.7909395 77.3785441 -110.16948
  49835    3.9868  29.5108475 79.8322729 -109.34312
  49836   3.98688  26.2039149 82.2133932 -108.41731
  49837   3.98696  22.8731496 84.5197393 -107.39289
  49838   3.98704  19.5215808 86.7492135 -106.27079
  49839   3.98712  16.1522569 88.8997881 -105.05205
  49840    3.9872  12.7682422 90.9695071 -103.73775
  49841   3.98728  9.37261472 92.9564881  -102.3291
  49842   3.98736  5.96846267 94.8589239 -100.82739
  49843   3.98744  2.55888223 96.6750842 -99.233966
  49844   3.98752  -.85302556 98.4033172 -97.550292
  49845    3.9876  -4.2641575 100.042051 -95.777893
  49846   3.98768  -7.6714111 101.589795 -93.918384
  49847   3.98776  -11.071688 103.045142 -91.973454
  49848   3.98784  -14.461894 104.406768 -89.944874
  49849   3.98792  -17.838947 105.673434 -87.834487
  49850     3.988  -21.199776 106.843989 -85.644214
  49851   3.98808  -24.541323 107.917368 -83.376046
  49852   3.98816  -27.860549 108.892595 -81.032046
  49853   3.98824  -31.154436 109.768782 -78.614346
  49854   3.98832  -34.419987 110.545133 -76.125146
  49855    3.9884  -37.654233 111.220942 -73.566709
  49856   3.98848  -40.854232 111.795594 -70.941362
  49857   3.98856  -44.017073 112.268566 -68.251493
  49858   3.98864  -47.139881 112.639428 -65.499548
  49859   3.98872  -50.219813 112.907843  -62.68803
  49860    3.9888  -53.254071 113.073567 -59.819497
  49861   3.98888  -56.239893 113.136449 -56.896557
  49862   3.98896  -59.174564 113.096432 -53.921869
  49863   3.98904  -62.055415 112.953552 -50.898138
  49864   3.98912  -64.879825  112.70794 -47.828114
  49865    3.9892  -67.645227 112.359817 -44.714591
  49866   3.98928  -70.349104 111.909502 -41.560398
  49867   3.98936  -72.988998 111.357404 -38.368406
  49868   3.98944  -75.562507 110.704025 -35.141518
  49869   3.98952  -78.067291 109.949959 -31.882667
  49870    3.9896  -80.501072 109.095892 -28.594819
  49871   3.98968  -82.861636   108.1426 -25.280964
  49872   3.98976  -85.146837 107.090952 -21.944115
  49873   3.98984  -87.354595 105.941902 -18.587308
  49874   3.98992  -89.482902 104.696498 -15.213595
  49875      3.99  -91.529824  103.35587 -11.826045
  49876   3.99008  -93.493499 101.921238 -8.4277399
  49877   3.99016  -95.372139 100.393908 -5.0217691
  49878   3.99024  -97.164037 98.7752684 -1.6112309
  49879   3.99032  -98.867564 97.0667911 1.80077262
  49880    3.9904  -100.48117 95.2700303 5.21113837
  49881   3.99048  -102.00338   93.38662 8.61676451
  49882   3.99056  -103.43283 91.4182734 12.0145536
  49883   3.99064   -104.7682 89.3667805 15.4014153
  49884   3.99072  -106.00828 87.2340073 18.7742691
  49885    3.9908  -107.15194 85.0218936 22.1300476
  49886   3.99088  -108.19815 82.7324513 25.4656984
  49887   3.99096  -109.14595 80.3677627 28.7781878
  49888   3.99104  -109.99448 77.9299785 32.0645031
  49889   3.99112  -110.74297 75.4213159 35.3216553
  49890    3.9912  -111.39074 72.8440566 38.5466819
  49891   3.99128  -111.93719 70.2005446 41.7366498
  49892   3.99136  -112.38184 67.4931843 44.8886576
  49893   3.99144  -112.72428 64.7244379 47.9998386
  49894   3.99152  -112.96419 61.8968238 51.0673631
  49895    3.9916  -113.10135 59.0129137 54.0884411
  49896   3.99168  -113.13566 56.0753305 57.0603249
  49897   3.99176  -113.06706 53.0867461 59.9803115
  49898   3.99184  -112.89562 50.0498785 62.8457453
  49899   3.99192  -112.62151 46.9674898 65.6540199
  49900     3.992  -112.24496 43.8423836 68.4025813
  49901   3.99208  -111.76633 40.6774021 71.0889297
  49902   3.99216  -111.18605  37.475424 73.7106217
  49903   3.99224  -110.50463 34.2393614 76.2652728
  49904   3.99232  -109.72272 30.9721577 78.7505596
  49905    3.9924  -108.84101 27.6767844 81.1642217
  49906   3.99248   -107.8603 24.3562386 83.5040639
  49907   3.99256   -106.7815 21.0135405 85.7679579
  49908   3.99264  -105.60558 17.6517304 87.9538448
  49909   3.99272   -104.3336 14.2738657 90.0597364
  49910    3.9928  -102.96674 10.8830187 92.0837175
  49911   3.99288  -101.50622  7.4822735 94.0239472
  49912   3.99296  -99.953384 4.07472305 95.8786608
  49913   3.99304  -98.309638 .663466592 97.6461714
  49914   3.99312  -96.576478 -2.7483933 99.3248715
  49915    3.9932  -94.755481 -6.1577535 100.913234
  49916   3.99328  -92.848302 -9.5615131 102.409815
  49917   3.99336  -90.856676 -12.956576 103.813253
  49918   3.99344  -88.782415 -16.339856 105.122271
  49919   3.99352  -86.627405 -19.708273 106.335679
  49920    3.9936  -84.393606 -23.058766 107.452373
  49921   3.99368  -82.083051 -26.388287 108.471337
  49922   3.99376  -79.697839 -29.693807 109.391646
  49923   3.99384  -77.240141  -32.97232 110.212461
  49924   3.99392  -74.712192 -36.220844 110.933037
  49925     3.994  -72.116292 -39.436425 111.552717
  49926   3.99408    -69.4548 -42.616138 112.070939
  49927   3.99416  -66.730139 -45.757091  112.48723
  49928   3.99424  -63.944786 -48.856428 112.801213
  49929   3.99432  -61.101274 -51.911329 113.012602
  49930    3.9944  -58.202189 -54.919015 113.121204
  49931   3.99448  -55.250169 -57.876752 113.126921
  49932   3.99456  -52.247898  -60.78185 113.029747
  49933   3.99464  -49.198107 -63.631665 112.829772
  49934   3.99472  -46.103569 -66.423607 112.527176
  49935    3.9948    -42.9671 -69.155135 112.122235
  49936   3.99488  -39.791551 -71.823766 111.615317
  49937   3.99496  -36.579811 -74.427072 111.006884
  49938   3.99504  -33.334802 -76.962686 110.297488
  49939   3.99512  -30.059474 -79.428301 109.487775
  49940    3.9952  -26.756807 -81.821675 108.578482
  49941   3.99528  -23.429804 -84.140631 107.570435
  49942   3.99536  -20.081491  -86.38306 106.464551
  49943   3.99544  -16.714914 -88.546922 105.261836
  49944   3.99552  -13.333134  -90.63025 103.963384
  49945    3.9956  -9.9392281 -92.631148 102.570376
  49946   3.99568   -6.536282 -94.547797 101.084079
  49947   3.99576   -3.127391 -96.378453 99.5058443
  49948   3.99584   .28434433 -98.121452 97.8371078
  49949   3.99592  3.69582109 -99.775208 96.0793871
  49950     3.996  7.10393645 -101.33822 94.2342809
  49951   3.99608  10.5055907 -102.80906 92.3034672
  49952   3.99616  13.8976899 -104.18639 90.2887023
  49953   3.99624   17.277149 -105.46897 88.1918186
  49954   3.99632  20.6408943 -106.65562 86.0147232
  49955    3.9964  23.9858665 -107.74526 83.7593963
  49956   3.99648  27.3090231 -108.73691  81.427889
  49957   3.99656  30.6073418 -109.62966 79.0223219
  49958   3.99664  33.8778227 -110.42271 76.5448829
  49959   3.99672  37.1174913 -111.11532 73.9978253
  49960    3.9968   40.323401 -111.70687 71.3834656
  49961   3.99688   43.492636 -112.19682 68.7041817
  49962   3.99696  46.6223139 -112.58472 65.9624104
  49963   3.99704  49.7095881 -112.87023 63.1606454
  49964   3.99712  52.7516508 -113.05309 60.3014349
  49965    3.9972  55.7457351 -113.13311 57.3873794
  49966   3.99728  58.6891179 -113.11025 54.4211293
  49967   3.99736  61.5791221  -112.9845 51.4053825
  49968   3.99744  64.4131193   -112.756 48.3428817
  49969   3.99752  67.1885318 -112.42494 45.2364124
  49970    3.9976  69.9028355 -111.99164    42.0888
  49971   3.99768  72.5535615 -111.45647 38.9029072
  49972   3.99776  75.1382991 -110.81993 35.6816317
  49973   3.99784  77.6546974  -110.0826 32.4279032
  49974   3.99792  80.1004676 -109.24515 29.1446812
  49975     3.998  82.4733854 -108.30834 25.8349516
  49976   3.99808  84.7712925 -107.27302 22.5017248
  49977   3.99816  86.9920989 -106.14013 19.1480324
  49978   3.99824  89.1337848 -104.91071 15.7769245
  49979   3.99832  91.1944024 -103.58587 12.3914674
  49980    3.9984  93.1720773 -102.16682    8.99474
  49981   3.99848  95.0650109 -100.65484 5.58983178
  49982   3.99856  96.8714817 -99.051321 2.17983954
  49983   3.99864  98.5898464 -97.357711 -1.2321353
  49984   3.99872  100.218542 -95.575553 -4.6429895
  49985    3.9988  101.756088 -93.706467 -8.0496208
  49986   3.99888  103.201085 -91.752154 -11.448931
  49987   3.99896   104.55222 -89.714392 -14.837828
  49988   3.99904  105.808263 -87.595033  -18.21323
  49989   3.99912  106.968071 -85.396004 -21.572067
  49990    3.9992  108.030591 -83.119308 -24.911283
  49991   3.99928  108.994855 -80.767012 -28.227843
  49992   3.99936  109.859987 -78.341259 -31.518729
  49993   3.99944    110.6252 -75.844252 -34.780948
  49994   3.99952  111.289798 -73.278265 -38.011533
  49995    3.9996  111.853176  -70.64563 -41.207547
  49996   3.99968  112.314822 -67.948741 -44.366081
  49997   3.99976  112.674317 -65.190052 -47.484264
  49998   3.99984  112.931332 -62.372072  -50.55926
  49999   3.99992  113.085635 -59.497364 -53.588271
  % % % % % %   Final time step,  PLTFIL  dumps plot data to ".PL4" disk file.
  Done dumping plot points to C-like disk file.
  50000       4.0  113.137085 -56.568542 -56.568542

Extrema of output variables follow.   Order and column positioning are the same as for the preceding time-step loop output.
Variable maxima :  113.137085 113.136449 113.136449
Times of maxima :         .05    3.98888     .96112
Variable minima :  -113.13566 -113.13693 -113.13693
Times of minima :     3.95832     .98056    3.96944

Blank card terminating all plot cards.            |BLANK PLOT

Memory storage figures for the preceding, now-completed data case.  -------------------------------  Present   Program
A value of  "-9999"  indicates that no figure is available.         24-Nov-16  09:59:14              figure     limit  (name)
     Size List 1.   Number of electric network nodes.                                                   10      6000  (LBUS)
     Size List 2.   Number of electric network branches.                                                 9     10000  (LBRNCH)
     Size List 3.   Number of data values in R, L, C tables.                                             9    192000  (LDATA)
     Size List 4.   Number of electric network sources.                                                  3       900  (LEXCT)
     Size List 5.   Storage for [Y] and triangularized [Y].   No. times =    4     Factors =    15      30    420000  (LYMAT)
     Size List 6.   Number of entries in switch table.                  No. flops = 12                   3      1200  (LSWTCH)
     Size List 7.   Number of distinct ALPHANUMERIC data names plus program SPY variables.              17     15000  (LSIZE7)
     Size List 8.   History points of distributed lines.                                                 0    120000  (LPAST)
     Size List 9.   Number of nonlinear elements.                                                        0      2250  (LNONL)
     Size List 10.  Points of nonlinear characteristics.                                                 0      3800  (LCHAR)
     Size List 11.  Number of Type-59 S.M. outputs.                                                      0       720  (LSMOUT)
     Size List 12.  Total number of EMTP output variables.                                               3      2000  (LSIZ12)
     Size List 13.  Working space for batch/SPY plotting.                                            -9999     72800  (LSIZ13)
     Size List 14.  S.M./U.M. connections to TACS.                                                   -9999       510  (LBSTAC)
     Size List 15.  Character storage in bytes for MODELS.                                           -9999     90000  (LCTACS)
     Size List 16.  Total number of Type-59 S.M. masses.                                                 0       800  (LIMASS)
     Size List 17.  Number of Type-59 Synchronous machines.                                              0        90  (LSYN)
     Size List 18.  Branch and switch power/energy outputs.                                              0       254  (MAXPE)
     Size List 19.  Total floating-point TACS table space.                                          113562    120000  (LTACST)
       Tacs table number       1         2         3         4         5         6         7         8
       Present figure          1         1         1        14         0         0         0       653
       Program limit        1426      6417      7130       652      2139     17825     24955      4278
     Size List 20.  Non-copied recursive convolution data.                                               0    100000  (LFSEM)
     Size List 21.  Total modal/phase [T] matrix storage.                                                0      3000  (LFD)
     Size List 22.  Total recursive convolution history.                                                 0     15000  (LHIST)
     Size List 23.  Giant vectors for renumbering, phasors.                                             15    192000  (LSIZ23)
     Size List 24.  Peak phases of compensation for data.                                                0       120  (LCOMP)
     Size List 25.  Total table space for all U.M usage.                                             -9999     45000  (LSPCUM)
     Size List 26.  Square of max number of coupled phases.                                              0    260000  (LSIZ26)
     Size List 28.  MODELS.  Total work space is divided into INTEGER and REAL.  1st, REAL:          -9999    210000  (LRTACS)
                             Second  and last,  statistics for INTEGER work space.                       0         0  (LITACS)
     Size List 29.  RAM disk used by "TAPSAV" table saving (limit is "LABCOM" size LTLABL).          -9999       600  (LSIZ29)
     Size List 30.  Taku Noda frequency-dependent circuits.                                              0        19  (LSIZ30)
Timing figures characterizing central processor (CP) solution speed.  ----------------------------   CP sec  Wait sec  Real sec
     Data input time (through blank card ending branches) ....                                       0.000     0.000     0.000
     Node renumbering and phasor solution  ....                                                      0.000     0.000     0.000
     After phasor solution, but before time-step loop  ....                                          0.000     0.000     0.000
     Integration of equations (time-step loop)  ....                                                 0.390     0.000     0.390
     Plotting or STATISTICS termination overlays ....                                                0.000     0.000     0.000
                                                                                                    ---------------------------
                                                                                          Totals      0.390     0.000     0.390

